                                  MODFLOW-2005     
      U.S. GEOLOGICAL SURVEY MODULAR FINITE-DIFFERENCE GROUND-WATER FLOW MODEL
                            VERSION 1.12.00 2/3/2017

 LIST FILE: case1a_mf.list
                         UNIT    2

 OPENING case1a_mf.dis
 FILE TYPE:DIS   UNIT   11   STATUS:OLD    
 FORMAT:FORMATTED              ACCESS:SEQUENTIAL          

 OPENING case1a_mf.bas
 FILE TYPE:BAS6   UNIT   13   STATUS:OLD    
 FORMAT:FORMATTED              ACCESS:SEQUENTIAL          

 OPENING case1a_mf.lpf
 FILE TYPE:LPF   UNIT   15   STATUS:OLD    
 FORMAT:FORMATTED              ACCESS:SEQUENTIAL          

 OPENING case1a_mf.pcg
 FILE TYPE:PCG   UNIT   27   STATUS:OLD    
 FORMAT:FORMATTED              ACCESS:SEQUENTIAL          

 OPENING case1a_mf.lmt6
 FILE TYPE:LMT6   UNIT   30   STATUS:OLD    
 FORMAT:FORMATTED              ACCESS:SEQUENTIAL          

 BAS -- BASIC PACKAGE, VERSION 7, 5/2/2005 INPUT READ FROM UNIT   13

 MODFLOW was compiled using mixed precision
 Precision of REAL variables:           6
 Precision of DOUBLE PRECISION variables:          15

 DISCRETIZATION INPUT DATA READ FROM UNIT   11
 # DIS package for  MODFLOW-2005, generated by Flopy.
    1 LAYERS         1 ROWS       101 COLUMNS
    1 STRESS PERIOD(S) IN SIMULATION
 MODEL TIME UNIT IS DAYS
 MODEL LENGTH UNIT IS METERS
  Confining bed flag for each layer:
   0

                     DELR =   10.0000    

                     DELC =   1.00000    

 TOP ELEVATION OF LAYER 1 =   0.00000    

   MODEL LAYER BOTTOM EL. =  -1.00000     FOR LAYER   1


 STRESS PERIOD     LENGTH       TIME STEPS     MULTIPLIER FOR DELT    SS FLAG
 ----------------------------------------------------------------------------
        1         2000.000          1                    1.000         SS

 STEADY-STATE SIMULATION




 # BAS6 package for  MODFLOW-2005, generated by Flopy.                           
 THE FREE FORMAT OPTION HAS BEEN SELECTED



                     BOUNDARY ARRAY FOR LAYER   1
 READING ON UNIT   13 WITH FORMAT: (101I10)            

 AQUIFER HEAD WILL BE SET TO  -999.99     AT ALL NO-FLOW NODES (IBOUND=0).



                       INITIAL HEAD FOR LAYER   1
 READING ON UNIT   13 WITH FORMAT: (101E15.6)          

 DEFAULT OUTPUT CONTROL
 THE FOLLOWING OUTPUT COMES AT THE END OF EACH STRESS PERIOD:
 TOTAL VOLUMETRIC BUDGET
           HEAD

 LPF -- LAYER-PROPERTY FLOW PACKAGE, VERSION 7, 5/2/2005
         INPUT READ FROM UNIT   15
 # LPF package for  MODFLOW-2005, generated by Flopy.
 HEAD AT CELLS THAT CONVERT TO DRY= -1.00000E+30
 No named parameters

   LAYER FLAGS:
 LAYER       LAYTYP        LAYAVG         CHANI        LAYVKA        LAYWET
 ---------------------------------------------------------------------------
    1             0             0     1.000E+00             0             0

   INTERPRETATION OF LAYER FLAGS:
                        INTERBLOCK     HORIZONTAL    DATA IN
         LAYER TYPE   TRANSMISSIVITY   ANISOTROPY   ARRAY VKA   WETTABILITY
 LAYER      (LAYTYP)      (LAYAVG)       (CHANI)      (LAYVKA)      (LAYWET)
 ---------------------------------------------------------------------------
    1      CONFINED      HARMONIC     1.000E+00    VERTICAL K  NON-WETTABLE

 WETTING CAPABILITY IS NOT ACTIVE IN ANY LAYER

    HYD. COND. ALONG ROWS =   1.00000     FOR LAYER   1

      VERTICAL HYD. COND. =   1.00000     FOR LAYER   1

 PCG -- CONJUGATE-GRADIENT SOLUTION PACKAGE, VERSION 7, 5/2/2005
 # PCG package for  MODFLOW-2005, generated by Flopy.
 MAXIMUM OF     50 CALLS OF SOLUTION ROUTINE
 MAXIMUM OF     30 INTERNAL ITERATIONS PER CALL TO SOLUTION ROUTINE
 MATRIX PRECONDITIONING TYPE :    1



                                    SOLUTION BY THE CONJUGATE-GRADIENT METHOD
                                   -------------------------------------------
                    MAXIMUM NUMBER OF CALLS TO PCG ROUTINE =       50
                        MAXIMUM ITERATIONS PER CALL TO PCG =       30
                               MATRIX PRECONDITIONING TYPE =        1
        RELAXATION FACTOR (ONLY USED WITH PRECOND. TYPE 1) =    0.10000E+01
 PARAMETER OF POLYNOMIAL PRECOND. = 2 (2) OR IS CALCULATED :        0
                         HEAD CHANGE CRITERION FOR CLOSURE =    0.10000E-04
                     RESIDUAL CHANGE CRITERION FOR CLOSURE =    0.10000E-04
            PCG HEAD AND RESIDUAL CHANGE PRINTOUT INTERVAL =      999
     PRINTING FROM SOLVER IS LIMITED(1) OR SUPPRESSED (>1) =        3
                            STEADY-STATE DAMPING PARAMETER =    0.10000E+01
                               TRANSIENT DAMPING PARAMETER =    0.10000E+01


 ***Link-MT3DMS Package v7***
 OPENING LINK-MT3DMS OUTPUT FILE: mt3d_link.ftl                                                                                                                                                                                           
 ON UNIT NUMBER:    54
 FILE TYPE: UNFORMATTED
 HEADER OPTION: EXTENDED
 ***Link-MT3DMS Package v7***

1
                            STRESS PERIOD NO.    1, LENGTH =   2000.000    
                            -----------------------------------------------

                              NUMBER OF TIME STEPS =     1

                               MULTIPLIER FOR DELT =     1.000

                            INITIAL TIME STEP SIZE =   2000.000    

 SOLVING FOR HEAD 

 SAVING SATURATED THICKNESS AND FLOW TERMS ON UNIT   54 FOR MT3DMS
 BY THE LINK-MT3DMS PACKAGE V7 AT TIME STEP    1, STRESS PERIOD    1

1
              HEAD IN LAYER   1 AT END OF TIME STEP   1 IN STRESS PERIOD    1
  ---------------------------------------------------------------------------

            1           2           3           4           5           6           7           8           9          10
           11          12          13          14          15          16          17          18          19          20
           21          22          23          24          25          26          27          28          29          30
           31          32          33          34          35          36          37          38          39          40
           41          42          43          44          45          46          47          48          49          50
           51          52          53          54          55          56          57          58          59          60
           61          62          63          64          65          66          67          68          69          70
           71          72          73          74          75          76          77          78          79          80
           81          82          83          84          85          86          87          88          89          90
           91          92          93          94          95          96          97          98          99         100
          101
 ........................................................................................................................
   1    60.00       59.40       58.80       58.20       57.60       57.00       56.40       55.80       55.20       54.60    
        54.00       53.40       52.80       52.20       51.60       51.00       50.40       49.80       49.20       48.60    
        48.00       47.40       46.80       46.20       45.60       45.00       44.40       43.80       43.20       42.60    
        42.00       41.40       40.80       40.20       39.60       39.00       38.40       37.80       37.20       36.60    
        36.00       35.40       34.80       34.20       33.60       33.00       32.40       31.80       31.20       30.60    
        30.00       29.40       28.80       28.20       27.60       27.00       26.40       25.80       25.20       24.60    
        24.00       23.40       22.80       22.20       21.60       21.00       20.40       19.80       19.20       18.60    
        18.00       17.40       16.80       16.20       15.60       15.00       14.40       13.80       13.20       12.60    
        12.00       11.40       10.80       10.20       9.600       9.000       8.400       7.800       7.200       6.600    
        6.000       5.400       4.800       4.200       3.600       3.000       2.400       1.800       1.200      0.6000    
        0.000    
1
  VOLUMETRIC BUDGET FOR ENTIRE MODEL AT END OF TIME STEP    1, STRESS PERIOD   1
  ------------------------------------------------------------------------------

     CUMULATIVE VOLUMES      L**3       RATES FOR THIS TIME STEP      L**3/T
     ------------------                 ------------------------

           IN:                                      IN:
           ---                                      ---
             STORAGE =           0.0000               STORAGE =           0.0000
       CONSTANT HEAD =         120.0000         CONSTANT HEAD =       6.0000E-02

            TOTAL IN =         120.0000              TOTAL IN =       6.0000E-02

          OUT:                                     OUT:
          ----                                     ----
             STORAGE =           0.0000               STORAGE =           0.0000
       CONSTANT HEAD =         120.0000         CONSTANT HEAD =       6.0000E-02

           TOTAL OUT =         120.0000             TOTAL OUT =       6.0000E-02

            IN - OUT =           0.0000              IN - OUT =           0.0000

 PERCENT DISCREPANCY =           0.00     PERCENT DISCREPANCY =           0.00






         TIME SUMMARY AT END OF TIME STEP    1 IN STRESS PERIOD    1
                    SECONDS     MINUTES      HOURS       DAYS        YEARS
                    -----------------------------------------------------------
   TIME STEP LENGTH 1.72800E+08 2.88000E+06  48000.      2000.0      5.4757    
 STRESS PERIOD TIME 1.72800E+08 2.88000E+06  48000.      2000.0      5.4757    
         TOTAL TIME 1.72800E+08 2.88000E+06  48000.      2000.0      5.4757    
1

 Run end date and time (yyyy/mm/dd hh:mm:ss): 2020/05/19 17:07:02
 Elapsed run time:  0.002 Seconds

