 LISTING FILE: binary_files_mt.list
                         UNIT  16

 OPENING mt3d_link.ftl
 FILE TYPE:FTL   UNIT  10

 OPENING binary_files_mt.btn
 FILE TYPE:BTN   UNIT  31

 OPENING binary_files_mt.adv
 FILE TYPE:ADV   UNIT  32

 OPENING binary_files_mt.dsp
 FILE TYPE:DSP   UNIT  33

 OPENING binary_files_mt.rct
 FILE TYPE:RCT   UNIT  36

 OPENING binary_files_mt.ssm
 FILE TYPE:SSM   UNIT  34

 OPENING binary_files_mt.gcg
 FILE TYPE:GCG   UNIT  35

                              +++++++++++++++++++++++++++++++++++++++++++++++++++++++++++++++++++++++
                              +                                                                     +
                              +                               MT3DMS                                +
                              +             A Modular 3D Multi-Species Transport Model              +
                              +    For Simulation of Advection, Dispersion and Chemical Reactions   +
                              +                of Contaminants in Groundwater Systems               +
                              +                                                                     +
                              +++++++++++++++++++++++++++++++++++++++++++++++++++++++++++++++++++++++

  ----- 
 | M T | ## BTN for MT3DMS, generated by Flopy.                                          
 | 3 D | ##                                                                              
  ----- 
 THE TRANSPORT MODEL CONSISTS OF     1 LAYER(S)   41 ROW(S)   81 COLUMN(S)
 NUMBER OF STRESS PERIOD(S) FOR TRANSPORT SIMULATION =   50
 NUMBER OF ALL COMPONENTS INCLUDED IN SIMULATION =    2
 NUMBER OF MOBILE COMPONENTS INCLUDED IN SIMULATION =    2
 UNIT FOR TIME IS D   ;  UNIT FOR LENGTH IS M   ;  UNIT FOR MASS IS KG  
 OPTIONAL PACKAGES INCLUDED IN CURRENT SIMULATION:
  o ADV   ON UNIT 32
  o DSP   ON UNIT 33
  o SSM   ON UNIT 34
  o RCT   ON UNIT 36
  o GCG   ON UNIT 35

 BTN5 -- BASIC TRANSPORT PACKAGE, VERSION 5, FEBRUARY 2010, INPUT READ FROM UNIT 31
      73306 ELEMENTS OF THE  X ARRAY USED BY THE BTN PACKAGE
       6643 ELEMENTS OF THE IX ARRAY USED BY THE BTN PACKAGE

 FMI5 -- FLOW MODEL INTERFACE PACKAGE, VERSION 5, FEBRUARY 2010, INPUT READ FROM UNIT 10
 FLOW MODEL IS STEADY-STATE
 FLOW MODEL CONTAINS CONSTANT-HEAD CELLS

 ADV5 -- ADVECTION PACKAGE, VERSION 5, FEBRUARY 2010, INPUT READ FROM UNIT 32
 ADVECTION IS SOLVED WITH THE ULTIMATE SCHEME
 COURANT NUMBER ALLOWED IN SOLVING THE ADVECTION TERM = 0.500    
          0 ELEMENTS OF THE  X ARRAY USED BY THE ADV PACKAGE
          0 ELEMENTS OF THE IX ARRAY USED BY THE ADV PACKAGE

 DSP5 -- DISPERSION PACKAGE, VERSION 5, FEBRUARY 2010, INPUT READ FROM UNIT 33
      49817 ELEMENTS OF THE  X ARRAY USED BY THE DSP PACKAGE
          0 ELEMENTS OF THE IX ARRAY USED BY THE DSP PACKAGE

 SSM5 -- SINK & SOURCE MIXING PACKAGE, VERSION 5, FEBRUARY 2010, INPUT READ FROM UNIT 34
 HEADER LINE OF THE SSM PACKAGE INPUT FILE:
  T F F F F F F F F F F F F F F F                                                                                                                                                                        
 MAJOR STRESS COMPONENTS PRESENT IN THE FLOW MODEL:
  o WELL [WEL]
 MAXIMUM NUMBER OF POINT SINKS/SOURCES =     250
       3500 ELEMENTS OF THE  X ARRAY USED BY THE SSM PACKAGE
          0 ELEMENTS OF THE IX ARRAY BY THE SSM PACKAGE

 RCT5 -- CHEMICAL REACTION PACKAGE, VERSION 5, FEBRUARY 2010, INPUT READ FROM UNIT 36
 TYPE OF SORPTION SELECTED IS [FREUNDLICH]
 NO FIRST-ORDER RATE REACTION IS SIMULATED
 REACTION COEFFICIENTS ASSIGNED CELL-BY-CELL
 INITIAL SORBED/IMMOBILE PHASE CONCENTRATION ASSIGNED BY DEFAULT
      16605 ELEMENTS OF THE  X ARRAY USED BY THE RCT PACKAGE
          0 ELEMENTS OF THE IX ARRAY USED BY THE RCT PACKAGE

 GCG5 -- GENERALIZED CONJUGATE GRADIENT SOLVER PACKAGE, VERSION 5, FEBRUARY 2010 INPUT READ FROM UNIT 35
 MAXIMUM OF    1 OUTER ITERATIONS
        AND   50 INNER ITERATIONS ALLOWED FOR CLOSURE
 THE PRECONDITIONING TYPE SELECTED IS MODIFIED INCOMPLETE CHOLESKY (MIC).
 DISPERSION CROSS TERMS LUMPED INTO RIGHT-HAND-SIDE
      73112 ELEMENTS OF THE  X ARRAY USED BY THE GCG PACKAGE
        150 ELEMENTS OF THE IX ARRAY USED BY THE GCG PACKAGE

 ..........................................
 ELEMENTS OF THE  X ARRAY USED =    216341
 ELEMENTS OF THE IX ARRAY USED =      6794
 ..........................................

 LAYER NUMBER  AQUIFER TYPE
 ------------  ------------
       1            0
                                       WIDTH ALONG ROWS (DELR)  =   31.25000    
                                       WIDTH ALONG COLS (DELC)  =   31.25000    
                                       TOP ELEV. OF 1ST LAYER   =   0.000000    
                                       CELL THICKNESS (DZ)      =   50.00000     FOR LAYER  1
                                       POROSITY                 =  0.3000000     FOR LAYER  1
                                       CONCN. BOUNDARY ARRAY    =              1 FOR LAYER  1
                                       INITIAL CONC.: COMP.  01 =   0.000000     FOR LAYER  1
                                       INITIAL CONC.: COMP.  02 =   0.000000     FOR LAYER  1

 VALUE INDICATING INACTIVE CONCENTRATION CELLS =   0.1000000E+31
 MINIMUM SATURATED THICKNESS [THKMIN] ALLOWED =  0.0100 OF TOTAL CELL THICKNESS


 OUTPUT CONTROL OPTIONS
 ----------------------

 DO NOT PRINT CELL CONCENTRATION
 DO NOT PRINT PARTICLE NUMBER IN EACH CELL
 DO NOT PRINT RETARDATION FACTOR
 DO NOT PRINT DISPERSION COEFFICIENT
 SAVE DISSOLVED PHASE CONCENTRATIONS IN UNFORMATTED FILES [MT3Dnnn.UCN]
  FOR EACH SPECIES ON UNITS 201 AND ABOVE
 SAVE SORBED/IMMOBILE PHASE CONCENTRATIONS IN UNFORMATTED FILES [MT3DnnnS.UCN]
  FOR EACH SPECIES ON UNITS 301 AND ABOVE, IF SORPTION/MASS TRANSFER SIMULATED

 SIMULATION RESULTS ARE SAVED EVERY   1 TRANSPORT STEP(S)

 NUMBER OF OBSERVATION POINTS =   20
 SAVE CONCENTRATIONS AT OBSERVATION POINTS IN FILES [MT3Dnnn.OBS]
  FOR EACH SPECIES ON UNITS 401 AND ABOVE, EVERY  1 TRANSPORT STEPS
 LOCATION OF OBSERVATION POINTS
 ..............................
 NUMBER  LAYER   ROW   COLUMN
   1        1     32     50
   2        1     19     57
   3        1     21     49
   4        1     28     77
   5        1     25     61
   6        1     13     32
   7        1     20     70
   8        1     31     33
   9        1     34     39
  10        1     19     66
  11        1     23     75
  12        1     22     39
  13        1     35     56
  14        1     18     45
  15        1      6     67
  16        1     31     60
  17        1      9     53
  18        1     22     61
  19        1     12     41
  20        1     32     41

 SAVE ONE-LINE SUMMARY OF MASS BUDGETS IN FILES [MT3Dnnn.MAS]
  FOR EACH SPECIES ON UNITS 601 AND ABOVE, EVERY  1 TRANSPORT STEPS

 MAXIMUM LENGTH ALONG THE X (J) AXIS =   2531.250    
 MAXIMUM LENGTH ALONG THE Y (I) AXIS =   1281.250    
 MAXIMUM LENGTH ALONG THE Z (K) AXIS =   50.00000    


 ADVECTION SOLUTION OPTIONS
 --------------------------

 ADVECTION IS SOLVED WITH THE ULTIMATE SCHEME
 COURANT NUMBER ALLOWED IN SOLVING THE ADVECTION TERM = 0.500    


 DISPERSION INPUT PARAMETERS
 ---------------------------

                                       LONG. DISPERSIVITY (AL)  =   35.00000     FOR LAYER  1
                                       H. TRANS./LONG. DISP.    =  0.3000000    
                                       V. TRANS./LONG. DISP.    =  0.3000000E-01
                                       DIFFUSION COEFFICIENT    =  0.1000000E-08


 SORPTION AND 1ST/0TH ORDER REACTION PARAMETERS
 ----------------------------------------------

                                       BULK DENSITY (RHOB)      =   1.587000     FOR LAYER  1
                                       1ST SORP. COEF. COMP. 01 =  0.1000000     FOR LAYER  1
                                       1ST SORP. COEF. COMP. 02 =  0.2300000     FOR LAYER  1
                                       2ND SORP. COEF. COMP. 01 =  0.9000000     FOR LAYER  1
                                       2ND SORP. COEF. COMP. 02 =  0.9000000     FOR LAYER  1



                                               SOLUTION BY THE GENERALIZED CONJUGATE GRADIENT METHOD
                                               -----------------------------------------------------
                                     MAXIMUM OUTER ITERATIONS ALLOWED FOR CLOSURE =        1
                                     MAXIMUM INNER ITERATIONS ALLOWED FOR CLOSURE =       50
                                                    PRECONDITIONING TYPE SELECTED =    3
                                                           ACCELERATION PARAMETER =     1.0000    
                                       CONCENTRATION CHANGE CRITERION FOR CLOSURE =    0.10000E-04
                                       GCG CONCENTRATION CHANGE PRINTOUT INTERVAL =      999


                                   ++++++++++++++++++++++++++++++++++++++++++++++++++++++++++++++
                                                       STRESS PERIOD NO.  001
                                   ++++++++++++++++++++++++++++++++++++++++++++++++++++++++++++++


 LENGTH OF CURRENT STRESS PERIOD =   730.0000    
 NUMBER OF TIME STEPS FOR CURRENT STRESS PERIOD =    1
 TIME STEP MULTIPLIER USED IN FLOW SOLUTION =   1.000000    

 ***Type of Transport Simulation is TRANSIENT

 USER-SPECIFIED TRANSPORT STEPSIZE =   0.000000    D   
 MAXIMUM NUMBER OF TRANSPORT STEPS ALLOWED  IN ONE FLOW TIME STEP =     50000
 MULTIPLIER FOR SUCCESSIVE TRANSPORT STEPS  [USED IN IMPLICIT SCHEMES] =     1.000
 MAXIMUM TRANSPORT STEP SIZE  [USED IN IMPLICIT SCHEMES] =   0.000000    D   

       NO    LAYER   ROW   COLUMN   CONCENTRATION       TYPE            COMPONENT
       1       1      16      26       10000.00         WELL                1
       1       1      16      26       20000.00         WELL                2


                                          ================================================
                                                         TIME STEP NO.  001
                                          ================================================

 FROM TIME =   0.0000     TO    730.00    


                    "THKSAT          " FLOW TERMS FOR TIME STEP  1, STRESS PERIOD  1 READ UNFORMATTED ON UNIT 10
                    --------------------------------------------------------------------------------------------

                    "QXX             " FLOW TERMS FOR TIME STEP  1, STRESS PERIOD  1 READ UNFORMATTED ON UNIT 10
                    --------------------------------------------------------------------------------------------

                    "QYY             " FLOW TERMS FOR TIME STEP  1, STRESS PERIOD  1 READ UNFORMATTED ON UNIT 10
                    --------------------------------------------------------------------------------------------

 MAXIMUM STEPSIZE DURING WHICH ANY PARTICLE CANNOT MOVE MORE THAN ONE CELL
 =  152.6    (WHEN MIN. R.F.=1)  AT K=   1, I=  20, J=  38

 MAXIMUM STEPSIZE WHICH MEETS STABILITY CRITERION OF THE ADVECTION TERM
 (FOR PURE FINITE-DIFFERENCE OPTION, MIXELM=0) 
 =  119.6    (WHEN MIN. R.F.=1)  AT K=   1, I=  16, J=  26

                    "CNH             " FLOW TERMS FOR TIME STEP  1, STRESS PERIOD  1 READ UNFORMATTED ON UNIT 10
                    --------------------------------------------------------------------------------------------

                    "WEL             " FLOW TERMS FOR TIME STEP  1, STRESS PERIOD  1 READ UNFORMATTED ON UNIT 10
                    --------------------------------------------------------------------------------------------


 TOTAL NUMBER OF POINT SOURCES/SINKS PRESENT IN THE FLOW MODEL =    83

 MAXIMUM STEPSIZE WHICH MEETS STABILITY CRITERION OF THE SINK & SOURCE TERM
 =  146.5    (WHEN MIN. R.F.=1)  AT K=   1, I=  16, J=  26

 MAXIMUM STEPSIZE WHICH MEETS STABILITY CRITERION OF THE DISPERSION TERM
 =  51.85    (WHEN MIN. R.F.=1)  AT K=   1, I=  16, J=  26


     1 CALLS TO GCG PACKAGE FOR TRANSPORT TIME STEP   1 IN FLOW TIME STEP   1 STRESS PERIOD   1
     6 TOTAL ITERATIONS


     1 CALLS TO GCG PACKAGE FOR TRANSPORT TIME STEP   1 IN FLOW TIME STEP   1 STRESS PERIOD   1
     6 TOTAL ITERATIONS



 >>>>>>>>>>>>>>>>>>>>>>>>>>>>>>>>>>>>>>>>>>>>>>>>>>>>>>>FOR COMPONENT NO. 01<<<<<<<<<<<<<<<<<<<<<<<<<<<<<<<<<<<<<<<<<<<<<<<<<<<<<<<


                                            -------------------------------------------
                                                      TRANSPORT STEP NO.    1
                                            -------------------------------------------

 TOTAL ELAPSED TIME SINCE BEGINNING OF SIMULATION =   59.81123    D   
 .....................................................................

                     CUMMULATIVE MASS BUDGETS AT END OF TRANSPORT STEP    1, TIME STEP    1, STRESS PERIOD    1
                     ------------------------------------------------------------------------------------------

                                                             IN                           OUT
                                                      ----------------             ----------------
                               CONSTANT CONCENTRATION:    0.000000                    0.000000    
                                        CONSTANT HEAD:    0.000000                  -0.1424008E-29
                                                WELLS:   0.5981122E+08                0.000000    
                               1ST/0TH ORDER REACTION:    0.000000                    0.000000    
                                MASS STORAGE (SOLUTE):    0.000000                  -0.5981122E+08
                                MASS STORAGE (SORBED):    0.000000                  -0.1494253E+08
                            ---------------------------------------------------------------------------
                                              [TOTAL]:   0.5981122E+08 KG           -0.7475374E+08 KG  

                                                          NET (IN - OUT):  -0.1494252E+08
                                                   DISCREPANCY (PERCENT):   -22.20864    



 >>>>>>>>>>>>>>>>>>>>>>>>>>>>>>>>>>>>>>>>>>>>>>>>>>>>>>>FOR COMPONENT NO. 02<<<<<<<<<<<<<<<<<<<<<<<<<<<<<<<<<<<<<<<<<<<<<<<<<<<<<<<


                                            -------------------------------------------
                                                      TRANSPORT STEP NO.    1
                                            -------------------------------------------

 TOTAL ELAPSED TIME SINCE BEGINNING OF SIMULATION =   59.81123    D   
 .....................................................................

                     CUMMULATIVE MASS BUDGETS AT END OF TRANSPORT STEP    1, TIME STEP    1, STRESS PERIOD    1
                     ------------------------------------------------------------------------------------------

                                                             IN                           OUT
                                                      ----------------             ----------------
                               CONSTANT CONCENTRATION:    0.000000                    0.000000    
                                        CONSTANT HEAD:    0.000000                  -0.2848016E-29
                                                WELLS:   0.1196224E+09                0.000000    
                               1ST/0TH ORDER REACTION:    0.000000                    0.000000    
                                MASS STORAGE (SOLUTE):    0.000000                  -0.1196224E+09
                                MASS STORAGE (SORBED):    0.000000                  -0.6413262E+08
                            ---------------------------------------------------------------------------
                                              [TOTAL]:   0.1196224E+09 KG           -0.1837550E+09 KG  

                                                          NET (IN - OUT):  -0.6413259E+08
                                                   DISCREPANCY (PERCENT):   -42.27908    
     1 CALLS TO GCG PACKAGE FOR TRANSPORT TIME STEP   2 IN FLOW TIME STEP   1 STRESS PERIOD   1
     4 TOTAL ITERATIONS
     1 CALLS TO GCG PACKAGE FOR TRANSPORT TIME STEP   2 IN FLOW TIME STEP   1 STRESS PERIOD   1
     4 TOTAL ITERATIONS



 >>>>>>>>>>>>>>>>>>>>>>>>>>>>>>>>>>>>>>>>>>>>>>>>>>>>>>>FOR COMPONENT NO. 01<<<<<<<<<<<<<<<<<<<<<<<<<<<<<<<<<<<<<<<<<<<<<<<<<<<<<<<


                                            -------------------------------------------
                                                      TRANSPORT STEP NO.    2
                                            -------------------------------------------

 TOTAL ELAPSED TIME SINCE BEGINNING OF SIMULATION =   119.6225    D   
 .....................................................................

                     CUMMULATIVE MASS BUDGETS AT END OF TRANSPORT STEP    2, TIME STEP    1, STRESS PERIOD    1
                     ------------------------------------------------------------------------------------------

                                                             IN                           OUT
                                                      ----------------             ----------------
                               CONSTANT CONCENTRATION:    0.000000                    0.000000    
                                        CONSTANT HEAD:    0.000000                  -0.2849530E-29
                                                WELLS:   0.1196224E+09                0.000000    
                               1ST/0TH ORDER REACTION:    0.000000                    0.000000    
                                MASS STORAGE (SOLUTE):   0.3091735E-36              -0.1064098E+09
                                MASS STORAGE (SORBED):   0.1190877E-32              -0.2688867E+08
                            ---------------------------------------------------------------------------
                                              [TOTAL]:   0.1196224E+09 KG           -0.1332985E+09 KG  

                                                          NET (IN - OUT):  -0.1367602E+08
                                                   DISCREPANCY (PERCENT):   -10.81446    



 >>>>>>>>>>>>>>>>>>>>>>>>>>>>>>>>>>>>>>>>>>>>>>>>>>>>>>>FOR COMPONENT NO. 02<<<<<<<<<<<<<<<<<<<<<<<<<<<<<<<<<<<<<<<<<<<<<<<<<<<<<<<


                                            -------------------------------------------
                                                      TRANSPORT STEP NO.    2
                                            -------------------------------------------

 TOTAL ELAPSED TIME SINCE BEGINNING OF SIMULATION =   119.6225    D   
 .....................................................................

                     CUMMULATIVE MASS BUDGETS AT END OF TRANSPORT STEP    2, TIME STEP    1, STRESS PERIOD    1
                     ------------------------------------------------------------------------------------------

                                                             IN                           OUT
                                                      ----------------             ----------------
                               CONSTANT CONCENTRATION:    0.000000                    0.000000    
                                        CONSTANT HEAD:    0.000000                  -0.5697444E-29
                                                WELLS:   0.2392449E+09                0.000000    
                               1ST/0TH ORDER REACTION:    0.000000                    0.000000    
                                MASS STORAGE (SOLUTE):   0.7749303E-36              -0.1945073E+09
                                MASS STORAGE (SORBED):   0.6588667E-32              -0.1053146E+09
                            ---------------------------------------------------------------------------
                                              [TOTAL]:   0.2392449E+09 KG           -0.2998219E+09 KG  

                                                          NET (IN - OUT):  -0.6057699E+08
                                                   DISCREPANCY (PERCENT):   -22.47477    
     1 CALLS TO GCG PACKAGE FOR TRANSPORT TIME STEP   3 IN FLOW TIME STEP   1 STRESS PERIOD   1
     4 TOTAL ITERATIONS
     1 CALLS TO GCG PACKAGE FOR TRANSPORT TIME STEP   3 IN FLOW TIME STEP   1 STRESS PERIOD   1
     4 TOTAL ITERATIONS



 >>>>>>>>>>>>>>>>>>>>>>>>>>>>>>>>>>>>>>>>>>>>>>>>>>>>>>>FOR COMPONENT NO. 01<<<<<<<<<<<<<<<<<<<<<<<<<<<<<<<<<<<<<<<<<<<<<<<<<<<<<<<


                                            -------------------------------------------
                                                      TRANSPORT STEP NO.    3
                                            -------------------------------------------

 TOTAL ELAPSED TIME SINCE BEGINNING OF SIMULATION =   179.4337    D   
 .....................................................................

                     CUMMULATIVE MASS BUDGETS AT END OF TRANSPORT STEP    3, TIME STEP    1, STRESS PERIOD    1
                     ------------------------------------------------------------------------------------------

                                                             IN                           OUT
                                                      ----------------             ----------------
                               CONSTANT CONCENTRATION:    0.000000                    0.000000    
                                        CONSTANT HEAD:    0.000000                  -0.4276568E-29
                                                WELLS:   0.1794337E+09                0.000000    
                               1ST/0TH ORDER REACTION:    0.000000                    0.000000    
                                MASS STORAGE (SOLUTE):   0.5531539E-36              -0.1531501E+09
                                MASS STORAGE (SORBED):   0.2504902E-32              -0.3895854E+08
                            ---------------------------------------------------------------------------
                                              [TOTAL]:   0.1794337E+09 KG           -0.1921086E+09 KG  

                                                          NET (IN - OUT):  -0.1267494E+08
                                                   DISCREPANCY (PERCENT):   -6.822881    



 >>>>>>>>>>>>>>>>>>>>>>>>>>>>>>>>>>>>>>>>>>>>>>>>>>>>>>>FOR COMPONENT NO. 02<<<<<<<<<<<<<<<<<<<<<<<<<<<<<<<<<<<<<<<<<<<<<<<<<<<<<<<


                                            -------------------------------------------
                                                      TRANSPORT STEP NO.    3
                                            -------------------------------------------

 TOTAL ELAPSED TIME SINCE BEGINNING OF SIMULATION =   179.4337    D   
 .....................................................................

                     CUMMULATIVE MASS BUDGETS AT END OF TRANSPORT STEP    3, TIME STEP    1, STRESS PERIOD    1
                     ------------------------------------------------------------------------------------------

                                                             IN                           OUT
                                                      ----------------             ----------------
                               CONSTANT CONCENTRATION:    0.000000                    0.000000    
                                        CONSTANT HEAD:    0.000000                  -0.8548283E-29
                                                WELLS:   0.3588673E+09                0.000000    
                               1ST/0TH ORDER REACTION:    0.000000                    0.000000    
                                MASS STORAGE (SOLUTE):   0.1425406E-35              -0.2696425E+09
                                MASS STORAGE (SORBED):   0.1317955E-31              -0.1469003E+09
                            ---------------------------------------------------------------------------
                                              [TOTAL]:   0.3588673E+09 KG           -0.4165428E+09 KG  

                                                          NET (IN - OUT):  -0.5767546E+08
                                                   DISCREPANCY (PERCENT):   -14.87612    
     1 CALLS TO GCG PACKAGE FOR TRANSPORT TIME STEP   4 IN FLOW TIME STEP   1 STRESS PERIOD   1
     4 TOTAL ITERATIONS
     1 CALLS TO GCG PACKAGE FOR TRANSPORT TIME STEP   4 IN FLOW TIME STEP   1 STRESS PERIOD   1
     4 TOTAL ITERATIONS



 >>>>>>>>>>>>>>>>>>>>>>>>>>>>>>>>>>>>>>>>>>>>>>>>>>>>>>>FOR COMPONENT NO. 01<<<<<<<<<<<<<<<<<<<<<<<<<<<<<<<<<<<<<<<<<<<<<<<<<<<<<<<


                                            -------------------------------------------
                                                      TRANSPORT STEP NO.    4
                                            -------------------------------------------

 TOTAL ELAPSED TIME SINCE BEGINNING OF SIMULATION =   239.2449    D   
 .....................................................................

                     CUMMULATIVE MASS BUDGETS AT END OF TRANSPORT STEP    4, TIME STEP    1, STRESS PERIOD    1
                     ------------------------------------------------------------------------------------------

                                                             IN                           OUT
                                                      ----------------             ----------------
                               CONSTANT CONCENTRATION:    0.000000                    0.000000    
                                        CONSTANT HEAD:    0.000000                  -0.5705124E-29
                                                WELLS:   0.2392449E+09                0.000000    
                               1ST/0TH ORDER REACTION:    0.000000                    0.000000    
                                MASS STORAGE (SOLUTE):   0.9836407E-36              -0.1999496E+09
                                MASS STORAGE (SORBED):   0.4595441E-32              -0.5109132E+08
                            ---------------------------------------------------------------------------
                                              [TOTAL]:   0.2392449E+09 KG           -0.2510409E+09 KG  

                                                          NET (IN - OUT):  -0.1179603E+08
                                                   DISCREPANCY (PERCENT):   -4.811900    



 >>>>>>>>>>>>>>>>>>>>>>>>>>>>>>>>>>>>>>>>>>>>>>>>>>>>>>>FOR COMPONENT NO. 02<<<<<<<<<<<<<<<<<<<<<<<<<<<<<<<<<<<<<<<<<<<<<<<<<<<<<<<


                                            -------------------------------------------
                                                      TRANSPORT STEP NO.    4
                                            -------------------------------------------

 TOTAL ELAPSED TIME SINCE BEGINNING OF SIMULATION =   239.2449    D   
 .....................................................................

                     CUMMULATIVE MASS BUDGETS AT END OF TRANSPORT STEP    4, TIME STEP    1, STRESS PERIOD    1
                     ------------------------------------------------------------------------------------------

                                                             IN                           OUT
                                                      ----------------             ----------------
                               CONSTANT CONCENTRATION:    0.000000                    0.000000    
                                        CONSTANT HEAD:    0.000000                  -0.1140053E-28
                                                WELLS:   0.4784898E+09                0.000000    
                               1ST/0TH ORDER REACTION:    0.000000                    0.000000    
                                MASS STORAGE (SOLUTE):   0.2187056E-35              -0.3448808E+09
                                MASS STORAGE (SORBED):   0.2047329E-31              -0.1887023E+09
                            ---------------------------------------------------------------------------
                                              [TOTAL]:   0.4784898E+09 KG           -0.5335831E+09 KG  

                                                          NET (IN - OUT):  -0.5509331E+08
                                                   DISCREPANCY (PERCENT):   -10.88722    
     1 CALLS TO GCG PACKAGE FOR TRANSPORT TIME STEP   5 IN FLOW TIME STEP   1 STRESS PERIOD   1
     4 TOTAL ITERATIONS
     1 CALLS TO GCG PACKAGE FOR TRANSPORT TIME STEP   5 IN FLOW TIME STEP   1 STRESS PERIOD   1
     4 TOTAL ITERATIONS



 >>>>>>>>>>>>>>>>>>>>>>>>>>>>>>>>>>>>>>>>>>>>>>>>>>>>>>>FOR COMPONENT NO. 01<<<<<<<<<<<<<<<<<<<<<<<<<<<<<<<<<<<<<<<<<<<<<<<<<<<<<<<


                                            -------------------------------------------
                                                      TRANSPORT STEP NO.    5
                                            -------------------------------------------

 TOTAL ELAPSED TIME SINCE BEGINNING OF SIMULATION =   299.0561    D   
 .....................................................................

                     CUMMULATIVE MASS BUDGETS AT END OF TRANSPORT STEP    5, TIME STEP    1, STRESS PERIOD    1
                     ------------------------------------------------------------------------------------------

                                                             IN                           OUT
                                                      ----------------             ----------------
                               CONSTANT CONCENTRATION:    0.000000                    0.000000    
                                        CONSTANT HEAD:    0.000000                  -0.7135199E-29
                                                WELLS:   0.2990561E+09                0.000000    
                               1ST/0TH ORDER REACTION:    0.000000                    0.000000    
                                MASS STORAGE (SOLUTE):   0.1536291E-35              -0.2467818E+09
                                MASS STORAGE (SORBED):   0.7264854E-32              -0.6326414E+08
                            ---------------------------------------------------------------------------
                                              [TOTAL]:   0.2990561E+09 KG           -0.3100460E+09 KG  

                                                          NET (IN - OUT):  -0.1098982E+08
                                                   DISCREPANCY (PERCENT):   -3.608533    



 >>>>>>>>>>>>>>>>>>>>>>>>>>>>>>>>>>>>>>>>>>>>>>>>>>>>>>>FOR COMPONENT NO. 02<<<<<<<<<<<<<<<<<<<<<<<<<<<<<<<<<<<<<<<<<<<<<<<<<<<<<<<


                                            -------------------------------------------
                                                      TRANSPORT STEP NO.    5
                                            -------------------------------------------

 TOTAL ELAPSED TIME SINCE BEGINNING OF SIMULATION =   299.0561    D   
 .....................................................................

                     CUMMULATIVE MASS BUDGETS AT END OF TRANSPORT STEP    5, TIME STEP    1, STRESS PERIOD    1
                     ------------------------------------------------------------------------------------------

                                                             IN                           OUT
                                                      ----------------             ----------------
                               CONSTANT CONCENTRATION:    0.000000                    0.000000    
                                        CONSTANT HEAD:    0.000000                  -0.1425420E-28
                                                WELLS:   0.5981123E+09                0.000000    
                               1ST/0TH ORDER REACTION:    0.000000                    0.000000    
                                MASS STORAGE (SOLUTE):   0.2915263E-35              -0.4201787E+09
                                MASS STORAGE (SORBED):   0.2818680E-31              -0.2306458E+09
                            ---------------------------------------------------------------------------
                                              [TOTAL]:   0.5981123E+09 KG           -0.6508244E+09 KG  

                                                          NET (IN - OUT):  -0.5271219E+08
                                                   DISCREPANCY (PERCENT):   -8.441131    
     1 CALLS TO GCG PACKAGE FOR TRANSPORT TIME STEP   6 IN FLOW TIME STEP   1 STRESS PERIOD   1
     4 TOTAL ITERATIONS
     1 CALLS TO GCG PACKAGE FOR TRANSPORT TIME STEP   6 IN FLOW TIME STEP   1 STRESS PERIOD   1
     4 TOTAL ITERATIONS



 >>>>>>>>>>>>>>>>>>>>>>>>>>>>>>>>>>>>>>>>>>>>>>>>>>>>>>>FOR COMPONENT NO. 01<<<<<<<<<<<<<<<<<<<<<<<<<<<<<<<<<<<<<<<<<<<<<<<<<<<<<<<


                                            -------------------------------------------
                                                      TRANSPORT STEP NO.    6
                                            -------------------------------------------

 TOTAL ELAPSED TIME SINCE BEGINNING OF SIMULATION =   358.8673    D   
 .....................................................................

                     CUMMULATIVE MASS BUDGETS AT END OF TRANSPORT STEP    6, TIME STEP    1, STRESS PERIOD    1
                     ------------------------------------------------------------------------------------------

                                                             IN                           OUT
                                                      ----------------             ----------------
                               CONSTANT CONCENTRATION:    0.000000                    0.000000    
                                        CONSTANT HEAD:    0.000000                  -0.8566794E-29
                                                WELLS:   0.3588674E+09                0.000000    
                               1ST/0TH ORDER REACTION:    0.000000                    0.000000    
                                MASS STORAGE (SOLUTE):   0.1852813E-35              -0.2936332E+09
                                MASS STORAGE (SORBED):   0.8682674E-32              -0.7546690E+08
                            ---------------------------------------------------------------------------
                                              [TOTAL]:   0.3588674E+09 KG           -0.3691001E+09 KG  

                                                          NET (IN - OUT):  -0.1023274E+08
                                                   DISCREPANCY (PERCENT):   -2.811317    



 >>>>>>>>>>>>>>>>>>>>>>>>>>>>>>>>>>>>>>>>>>>>>>>>>>>>>>>FOR COMPONENT NO. 02<<<<<<<<<<<<<<<<<<<<<<<<<<<<<<<<<<<<<<<<<<<<<<<<<<<<<<<


                                            -------------------------------------------
                                                      TRANSPORT STEP NO.    6
                                            -------------------------------------------

 TOTAL ELAPSED TIME SINCE BEGINNING OF SIMULATION =   358.8673    D   
 .....................................................................

                     CUMMULATIVE MASS BUDGETS AT END OF TRANSPORT STEP    6, TIME STEP    1, STRESS PERIOD    1
                     ------------------------------------------------------------------------------------------

                                                             IN                           OUT
                                                      ----------------             ----------------
                               CONSTANT CONCENTRATION:    0.000000                    0.000000    
                                        CONSTANT HEAD:    0.000000                  -0.1710928E-28
                                                WELLS:   0.7177347E+09                0.000000    
                               1ST/0TH ORDER REACTION:    0.000000                    0.000000    
                                MASS STORAGE (SOLUTE):   0.3717781E-35              -0.4955148E+09
                                MASS STORAGE (SORBED):   0.3571199E-31              -0.2726913E+09
                            ---------------------------------------------------------------------------
                                              [TOTAL]:   0.7177347E+09 KG           -0.7682061E+09 KG  

                                                          NET (IN - OUT):  -0.5047136E+08
                                                   DISCREPANCY (PERCENT):   -6.793187    
     1 CALLS TO GCG PACKAGE FOR TRANSPORT TIME STEP   7 IN FLOW TIME STEP   1 STRESS PERIOD   1
     4 TOTAL ITERATIONS
     1 CALLS TO GCG PACKAGE FOR TRANSPORT TIME STEP   7 IN FLOW TIME STEP   1 STRESS PERIOD   1
     4 TOTAL ITERATIONS



 >>>>>>>>>>>>>>>>>>>>>>>>>>>>>>>>>>>>>>>>>>>>>>>>>>>>>>>FOR COMPONENT NO. 01<<<<<<<<<<<<<<<<<<<<<<<<<<<<<<<<<<<<<<<<<<<<<<<<<<<<<<<


                                            -------------------------------------------
                                                      TRANSPORT STEP NO.    7
                                            -------------------------------------------

 TOTAL ELAPSED TIME SINCE BEGINNING OF SIMULATION =   418.6786    D   
 .....................................................................

                     CUMMULATIVE MASS BUDGETS AT END OF TRANSPORT STEP    7, TIME STEP    1, STRESS PERIOD    1
                     ------------------------------------------------------------------------------------------

                                                             IN                           OUT
                                                      ----------------             ----------------
                               CONSTANT CONCENTRATION:    0.000000                    0.000000    
                                        CONSTANT HEAD:    0.000000                  -0.9999913E-29
                                                WELLS:   0.4186786E+09                0.000000    
                               1ST/0TH ORDER REACTION:    0.000000                    0.000000    
                                MASS STORAGE (SOLUTE):   0.2215237E-35              -0.3404962E+09
                                MASS STORAGE (SORBED):   0.1025381E-31              -0.8769343E+08
                            ---------------------------------------------------------------------------
                                              [TOTAL]:   0.4186786E+09 KG           -0.4281897E+09 KG  

                                                          NET (IN - OUT):   -9511072.    
                                                   DISCREPANCY (PERCENT):   -2.246175    



 >>>>>>>>>>>>>>>>>>>>>>>>>>>>>>>>>>>>>>>>>>>>>>>>>>>>>>>FOR COMPONENT NO. 02<<<<<<<<<<<<<<<<<<<<<<<<<<<<<<<<<<<<<<<<<<<<<<<<<<<<<<<


                                            -------------------------------------------
                                                      TRANSPORT STEP NO.    7
                                            -------------------------------------------

 TOTAL ELAPSED TIME SINCE BEGINNING OF SIMULATION =   418.6786    D   
 .....................................................................

                     CUMMULATIVE MASS BUDGETS AT END OF TRANSPORT STEP    7, TIME STEP    1, STRESS PERIOD    1
                     ------------------------------------------------------------------------------------------

                                                             IN                           OUT
                                                      ----------------             ----------------
                               CONSTANT CONCENTRATION:    0.000000                    0.000000    
                                        CONSTANT HEAD:    0.000000                  -0.1996577E-28
                                                WELLS:   0.8373572E+09                0.000000    
                               1ST/0TH ORDER REACTION:    0.000000                    0.000000    
                                MASS STORAGE (SOLUTE):   0.4715079E-35              -0.5708745E+09
                                MASS STORAGE (SORBED):   0.4534885E-31              -0.3148176E+09
                            ---------------------------------------------------------------------------
                                              [TOTAL]:   0.8373572E+09 KG           -0.8856921E+09 KG  

                                                          NET (IN - OUT):  -0.4833491E+08
                                                   DISCREPANCY (PERCENT):   -5.610392    
     1 CALLS TO GCG PACKAGE FOR TRANSPORT TIME STEP   8 IN FLOW TIME STEP   1 STRESS PERIOD   1
     4 TOTAL ITERATIONS
     1 CALLS TO GCG PACKAGE FOR TRANSPORT TIME STEP   8 IN FLOW TIME STEP   1 STRESS PERIOD   1
     4 TOTAL ITERATIONS



 >>>>>>>>>>>>>>>>>>>>>>>>>>>>>>>>>>>>>>>>>>>>>>>>>>>>>>>FOR COMPONENT NO. 01<<<<<<<<<<<<<<<<<<<<<<<<<<<<<<<<<<<<<<<<<<<<<<<<<<<<<<<


                                            -------------------------------------------
                                                      TRANSPORT STEP NO.    8
                                            -------------------------------------------

 TOTAL ELAPSED TIME SINCE BEGINNING OF SIMULATION =   478.4898    D   
 .....................................................................

                     CUMMULATIVE MASS BUDGETS AT END OF TRANSPORT STEP    8, TIME STEP    1, STRESS PERIOD    1
                     ------------------------------------------------------------------------------------------

                                                             IN                           OUT
                                                      ----------------             ----------------
                               CONSTANT CONCENTRATION:    0.000000                    0.000000    
                                        CONSTANT HEAD:    0.000000                  -0.1143456E-28
                                                WELLS:   0.4784898E+09                0.000000    
                               1ST/0TH ORDER REACTION:    0.000000                    0.000000    
                                MASS STORAGE (SOLUTE):   0.2630374E-35              -0.3873667E+09
                                MASS STORAGE (SORBED):   0.1203264E-31              -0.9993933E+08
                            ---------------------------------------------------------------------------
                                              [TOTAL]:   0.4784898E+09 KG           -0.4873060E+09 KG  

                                                          NET (IN - OUT):   -8816224.    
                                                   DISCREPANCY (PERCENT):   -1.825691    



 >>>>>>>>>>>>>>>>>>>>>>>>>>>>>>>>>>>>>>>>>>>>>>>>>>>>>>>FOR COMPONENT NO. 02<<<<<<<<<<<<<<<<<<<<<<<<<<<<<<<<<<<<<<<<<<<<<<<<<<<<<<<


                                            -------------------------------------------
                                                      TRANSPORT STEP NO.    8
                                            -------------------------------------------

 TOTAL ELAPSED TIME SINCE BEGINNING OF SIMULATION =   478.4898    D   
 .....................................................................

                     CUMMULATIVE MASS BUDGETS AT END OF TRANSPORT STEP    8, TIME STEP    1, STRESS PERIOD    1
                     ------------------------------------------------------------------------------------------

                                                             IN                           OUT
                                                      ----------------             ----------------
                               CONSTANT CONCENTRATION:    0.000000                    0.000000    
                                        CONSTANT HEAD:    0.000000                  -0.2282368E-28
                                                WELLS:   0.9569796E+09                0.000000    
                               1ST/0TH ORDER REACTION:    0.000000                    0.000000    
                                MASS STORAGE (SOLUTE):   0.5618035E-35              -0.6462497E+09
                                MASS STORAGE (SORBED):   0.5351617E-31              -0.3570095E+09
                            ---------------------------------------------------------------------------
                                              [TOTAL]:   0.9569796E+09 KG           -0.1003259E+10 KG  

                                                          NET (IN - OUT):  -0.4627962E+08
                                                   DISCREPANCY (PERCENT):   -4.721835    
     1 CALLS TO GCG PACKAGE FOR TRANSPORT TIME STEP   9 IN FLOW TIME STEP   1 STRESS PERIOD   1
     4 TOTAL ITERATIONS
     1 CALLS TO GCG PACKAGE FOR TRANSPORT TIME STEP   9 IN FLOW TIME STEP   1 STRESS PERIOD   1
     4 TOTAL ITERATIONS



 >>>>>>>>>>>>>>>>>>>>>>>>>>>>>>>>>>>>>>>>>>>>>>>>>>>>>>>FOR COMPONENT NO. 01<<<<<<<<<<<<<<<<<<<<<<<<<<<<<<<<<<<<<<<<<<<<<<<<<<<<<<<


                                            -------------------------------------------
                                                      TRANSPORT STEP NO.    9
                                            -------------------------------------------

 TOTAL ELAPSED TIME SINCE BEGINNING OF SIMULATION =   538.3010    D   
 .....................................................................

                     CUMMULATIVE MASS BUDGETS AT END OF TRANSPORT STEP    9, TIME STEP    1, STRESS PERIOD    1
                     ------------------------------------------------------------------------------------------

                                                             IN                           OUT
                                                      ----------------             ----------------
                               CONSTANT CONCENTRATION:    0.000000                    0.000000    
                                        CONSTANT HEAD:    0.000000                  -0.1287073E-28
                                                WELLS:   0.5383011E+09                0.000000    
                               1ST/0TH ORDER REACTION:    0.000000                    0.000000    
                                MASS STORAGE (SOLUTE):   0.3062505E-35              -0.4342418E+09
                                MASS STORAGE (SORBED):   0.1383842E-31              -0.1122019E+09
                            ---------------------------------------------------------------------------
                                              [TOTAL]:   0.5383011E+09 KG           -0.5464436E+09 KG  

                                                          NET (IN - OUT):   -8142592.    
                                                   DISCREPANCY (PERCENT):   -1.501292    



 >>>>>>>>>>>>>>>>>>>>>>>>>>>>>>>>>>>>>>>>>>>>>>>>>>>>>>>FOR COMPONENT NO. 02<<<<<<<<<<<<<<<<<<<<<<<<<<<<<<<<<<<<<<<<<<<<<<<<<<<<<<<


                                            -------------------------------------------
                                                      TRANSPORT STEP NO.    9
                                            -------------------------------------------

 TOTAL ELAPSED TIME SINCE BEGINNING OF SIMULATION =   538.3010    D   
 .....................................................................

                     CUMMULATIVE MASS BUDGETS AT END OF TRANSPORT STEP    9, TIME STEP    1, STRESS PERIOD    1
                     ------------------------------------------------------------------------------------------

                                                             IN                           OUT
                                                      ----------------             ----------------
                               CONSTANT CONCENTRATION:    0.000000                    0.000000    
                                        CONSTANT HEAD:    0.000000                  -0.2568301E-28
                                                WELLS:   0.1076602E+10                0.000000    
                               1ST/0TH ORDER REACTION:    0.000000                    0.000000    
                                MASS STORAGE (SOLUTE):   0.6386989E-35              -0.7216350E+09
                                MASS STORAGE (SORBED):   0.6023288E-31              -0.3992561E+09
                            ---------------------------------------------------------------------------
                                              [TOTAL]:   0.1076602E+10 KG           -0.1120891E+10 KG  

                                                          NET (IN - OUT):  -0.4428902E+08
                                                   DISCREPANCY (PERCENT):   -4.030868    
     1 CALLS TO GCG PACKAGE FOR TRANSPORT TIME STEP  10 IN FLOW TIME STEP   1 STRESS PERIOD   1
     4 TOTAL ITERATIONS
     1 CALLS TO GCG PACKAGE FOR TRANSPORT TIME STEP  10 IN FLOW TIME STEP   1 STRESS PERIOD   1
     4 TOTAL ITERATIONS



 >>>>>>>>>>>>>>>>>>>>>>>>>>>>>>>>>>>>>>>>>>>>>>>>>>>>>>>FOR COMPONENT NO. 01<<<<<<<<<<<<<<<<<<<<<<<<<<<<<<<<<<<<<<<<<<<<<<<<<<<<<<<


                                            -------------------------------------------
                                                      TRANSPORT STEP NO.   10
                                            -------------------------------------------

 TOTAL ELAPSED TIME SINCE BEGINNING OF SIMULATION =   598.1122    D   
 .....................................................................

                     CUMMULATIVE MASS BUDGETS AT END OF TRANSPORT STEP   10, TIME STEP    1, STRESS PERIOD    1
                     ------------------------------------------------------------------------------------------

                                                             IN                           OUT
                                                      ----------------             ----------------
                               CONSTANT CONCENTRATION:    0.000000                    0.000000    
                                        CONSTANT HEAD:    0.000000                  -0.1430843E-28
                                                WELLS:   0.5981123E+09                0.000000    
                               1ST/0TH ORDER REACTION:    0.000000                    0.000000    
                                MASS STORAGE (SOLUTE):   0.3525036E-35              -0.4811180E+09
                                MASS STORAGE (SORBED):   0.1583972E-31              -0.1244797E+09
                            ---------------------------------------------------------------------------
                                              [TOTAL]:   0.5981123E+09 KG           -0.6055977E+09 KG  

                                                          NET (IN - OUT):   -7485440.    
                                                   DISCREPANCY (PERCENT):   -1.243728    



 >>>>>>>>>>>>>>>>>>>>>>>>>>>>>>>>>>>>>>>>>>>>>>>>>>>>>>>FOR COMPONENT NO. 02<<<<<<<<<<<<<<<<<<<<<<<<<<<<<<<<<<<<<<<<<<<<<<<<<<<<<<<


                                            -------------------------------------------
                                                      TRANSPORT STEP NO.   10
                                            -------------------------------------------

 TOTAL ELAPSED TIME SINCE BEGINNING OF SIMULATION =   598.1122    D   
 .....................................................................

                     CUMMULATIVE MASS BUDGETS AT END OF TRANSPORT STEP   10, TIME STEP    1, STRESS PERIOD    1
                     ------------------------------------------------------------------------------------------

                                                             IN                           OUT
                                                      ----------------             ----------------
                               CONSTANT CONCENTRATION:    0.000000                    0.000000    
                                        CONSTANT HEAD:    0.000000                  -0.2854375E-28
                                                WELLS:   0.1196225E+10                0.000000    
                               1ST/0TH ORDER REACTION:    0.000000                    0.000000    
                                MASS STORAGE (SOLUTE):   0.7346517E-35              -0.7970264E+09
                                MASS STORAGE (SORBED):   0.6898912E-31              -0.4415498E+09
                            ---------------------------------------------------------------------------
                                              [TOTAL]:   0.1196225E+10 KG           -0.1238576E+10 KG  

                                                          NET (IN - OUT):  -0.4235162E+08
                                                   DISCREPANCY (PERCENT):   -3.478857    
     1 CALLS TO GCG PACKAGE FOR TRANSPORT TIME STEP  11 IN FLOW TIME STEP   1 STRESS PERIOD   1
     4 TOTAL ITERATIONS
     1 CALLS TO GCG PACKAGE FOR TRANSPORT TIME STEP  11 IN FLOW TIME STEP   1 STRESS PERIOD   1
     4 TOTAL ITERATIONS



 >>>>>>>>>>>>>>>>>>>>>>>>>>>>>>>>>>>>>>>>>>>>>>>>>>>>>>>FOR COMPONENT NO. 01<<<<<<<<<<<<<<<<<<<<<<<<<<<<<<<<<<<<<<<<<<<<<<<<<<<<<<<


                                            -------------------------------------------
                                                      TRANSPORT STEP NO.   11
                                            -------------------------------------------

 TOTAL ELAPSED TIME SINCE BEGINNING OF SIMULATION =   657.9235    D   
 .....................................................................

                     CUMMULATIVE MASS BUDGETS AT END OF TRANSPORT STEP   11, TIME STEP    1, STRESS PERIOD    1
                     ------------------------------------------------------------------------------------------

                                                             IN                           OUT
                                                      ----------------             ----------------
                               CONSTANT CONCENTRATION:    0.000000                    0.000000    
                                        CONSTANT HEAD:    0.000000                  -0.1574766E-28
                                                WELLS:   0.6579235E+09                0.000000    
                               1ST/0TH ORDER REACTION:    0.000000                    0.000000    
                                MASS STORAGE (SOLUTE):   0.3845050E-35              -0.5279962E+09
                                MASS STORAGE (SORBED):   0.1713960E-31              -0.1367702E+09
                            ---------------------------------------------------------------------------
                                              [TOTAL]:   0.6579235E+09 KG           -0.6647664E+09 KG  

                                                          NET (IN - OUT):   -6842944.    
                                                   DISCREPANCY (PERCENT):   -1.034701    



 >>>>>>>>>>>>>>>>>>>>>>>>>>>>>>>>>>>>>>>>>>>>>>>>>>>>>>>FOR COMPONENT NO. 02<<<<<<<<<<<<<<<<<<<<<<<<<<<<<<<<<<<<<<<<<<<<<<<<<<<<<<<


                                            -------------------------------------------
                                                      TRANSPORT STEP NO.   11
                                            -------------------------------------------

 TOTAL ELAPSED TIME SINCE BEGINNING OF SIMULATION =   657.9235    D   
 .....................................................................

                     CUMMULATIVE MASS BUDGETS AT END OF TRANSPORT STEP   11, TIME STEP    1, STRESS PERIOD    1
                     ------------------------------------------------------------------------------------------

                                                             IN                           OUT
                                                      ----------------             ----------------
                               CONSTANT CONCENTRATION:    0.000000                    0.000000    
                                        CONSTANT HEAD:    0.000000                  -0.3140591E-28
                                                WELLS:   0.1315847E+10                0.000000    
                               1ST/0TH ORDER REACTION:    0.000000                    0.000000    
                                MASS STORAGE (SOLUTE):   0.8433947E-35              -0.8724190E+09
                                MASS STORAGE (SORBED):   0.7871650E-31              -0.4838858E+09
                            ---------------------------------------------------------------------------
                                              [TOTAL]:   0.1315847E+10 KG           -0.1356305E+10 KG  

                                                          NET (IN - OUT):  -0.4045798E+08
                                                   DISCREPANCY (PERCENT):   -3.028120    
     1 CALLS TO GCG PACKAGE FOR TRANSPORT TIME STEP  12 IN FLOW TIME STEP   1 STRESS PERIOD   1
     4 TOTAL ITERATIONS
     1 CALLS TO GCG PACKAGE FOR TRANSPORT TIME STEP  12 IN FLOW TIME STEP   1 STRESS PERIOD   1
     4 TOTAL ITERATIONS



 >>>>>>>>>>>>>>>>>>>>>>>>>>>>>>>>>>>>>>>>>>>>>>>>>>>>>>>FOR COMPONENT NO. 01<<<<<<<<<<<<<<<<<<<<<<<<<<<<<<<<<<<<<<<<<<<<<<<<<<<<<<<


                                            -------------------------------------------
                                                      TRANSPORT STEP NO.   12
                                            -------------------------------------------

 TOTAL ELAPSED TIME SINCE BEGINNING OF SIMULATION =   717.7347    D   
 .....................................................................

                     CUMMULATIVE MASS BUDGETS AT END OF TRANSPORT STEP   12, TIME STEP    1, STRESS PERIOD    1
                     ------------------------------------------------------------------------------------------

                                                             IN                           OUT
                                                      ----------------             ----------------
                               CONSTANT CONCENTRATION:    0.000000                    0.000000    
                                        CONSTANT HEAD:    0.000000                  -0.1718842E-28
                                                WELLS:   0.7177347E+09                0.000000    
                               1ST/0TH ORDER REACTION:    0.000000                    0.000000    
                                MASS STORAGE (SOLUTE):   0.4231118E-35              -0.5748756E+09
                                MASS STORAGE (SORBED):   0.1871578E-31              -0.1490719E+09
                            ---------------------------------------------------------------------------
                                              [TOTAL]:   0.7177347E+09 KG           -0.7239475E+09 KG  

                                                          NET (IN - OUT):   -6212864.    
                                                   DISCREPANCY (PERCENT):  -0.8618909    



 >>>>>>>>>>>>>>>>>>>>>>>>>>>>>>>>>>>>>>>>>>>>>>>>>>>>>>>FOR COMPONENT NO. 02<<<<<<<<<<<<<<<<<<<<<<<<<<<<<<<<<<<<<<<<<<<<<<<<<<<<<<<


                                            -------------------------------------------
                                                      TRANSPORT STEP NO.   12
                                            -------------------------------------------

 TOTAL ELAPSED TIME SINCE BEGINNING OF SIMULATION =   717.7347    D   
 .....................................................................

                     CUMMULATIVE MASS BUDGETS AT END OF TRANSPORT STEP   12, TIME STEP    1, STRESS PERIOD    1
                     ------------------------------------------------------------------------------------------

                                                             IN                           OUT
                                                      ----------------             ----------------
                               CONSTANT CONCENTRATION:    0.000000                    0.000000    
                                        CONSTANT HEAD:    0.000000                  -0.3426949E-28
                                                WELLS:   0.1435469E+10                0.000000    
                               1ST/0TH ORDER REACTION:    0.000000                    0.000000    
                                MASS STORAGE (SOLUTE):   0.9394601E-35              -0.9478109E+09
                                MASS STORAGE (SORBED):   0.8678449E-31              -0.5262596E+09
                            ---------------------------------------------------------------------------
                                              [TOTAL]:   0.1435469E+10 KG           -0.1474071E+10 KG  

                                                          NET (IN - OUT):  -0.3860122E+08
                                                   DISCREPANCY (PERCENT):   -2.653424    
     1 CALLS TO GCG PACKAGE FOR TRANSPORT TIME STEP  13 IN FLOW TIME STEP   1 STRESS PERIOD   1
     3 TOTAL ITERATIONS
  MAXIMUM CONCENTRATION CHANGES FOR EACH ITERATION:
  MAX. CHANGE LAYER,ROW,COL MAX. CHANGE LAYER,ROW,COL MAX. CHANGE LAYER,ROW,COL MAX. CHANGE LAYER,ROW,COL MAX. CHANGE LAYER,ROW,COL
 ------------------------------------------------------------------------------------------------------------------------------------
   0.9554E-01 (  1, 16, 26)  0.8669E-04 (  1, 15, 27)  0.5215E-07 (  1, 14, 28)
     1 CALLS TO GCG PACKAGE FOR TRANSPORT TIME STEP  13 IN FLOW TIME STEP   1 STRESS PERIOD   1
     3 TOTAL ITERATIONS
  MAXIMUM CONCENTRATION CHANGES FOR EACH ITERATION:
  MAX. CHANGE LAYER,ROW,COL MAX. CHANGE LAYER,ROW,COL MAX. CHANGE LAYER,ROW,COL MAX. CHANGE LAYER,ROW,COL MAX. CHANGE LAYER,ROW,COL
 ------------------------------------------------------------------------------------------------------------------------------------
   0.7995E-01 (  1, 16, 26)  0.5108E-04 (  1, 15, 27)  0.2235E-07 (  1, 14, 28)



 >>>>>>>>>>>>>>>>>>>>>>>>>>>>>>>>>>>>>>>>>>>>>>>>>>>>>>>FOR COMPONENT NO. 01<<<<<<<<<<<<<<<<<<<<<<<<<<<<<<<<<<<<<<<<<<<<<<<<<<<<<<<


                                            -------------------------------------------
                                                      TRANSPORT STEP NO.   13
                                            -------------------------------------------

 TOTAL ELAPSED TIME SINCE BEGINNING OF SIMULATION =   730.0000    D   
 .....................................................................

                     CUMMULATIVE MASS BUDGETS AT END OF TRANSPORT STEP   13, TIME STEP    1, STRESS PERIOD    1
                     ------------------------------------------------------------------------------------------

                                                             IN                           OUT
                                                      ----------------             ----------------
                               CONSTANT CONCENTRATION:    0.000000                    0.000000    
                                        CONSTANT HEAD:    0.000000                  -0.1748393E-28
                                                WELLS:   0.7300000E+09                0.000000    
                               1ST/0TH ORDER REACTION:    0.000000                    0.000000    
                                MASS STORAGE (SOLUTE):   0.6720173E-11              -0.5845782E+09
                                MASS STORAGE (SORBED):   0.8472429E-10              -0.1516118E+09
                            ---------------------------------------------------------------------------
                                              [TOTAL]:   0.7300000E+09 KG           -0.7361901E+09 KG  

                                                          NET (IN - OUT):   -6190080.    
                                                   DISCREPANCY (PERCENT):  -0.8443762    



 >>>>>>>>>>>>>>>>>>>>>>>>>>>>>>>>>>>>>>>>>>>>>>>>>>>>>>>FOR COMPONENT NO. 02<<<<<<<<<<<<<<<<<<<<<<<<<<<<<<<<<<<<<<<<<<<<<<<<<<<<<<<


                                            -------------------------------------------
                                                      TRANSPORT STEP NO.   13
                                            -------------------------------------------

 TOTAL ELAPSED TIME SINCE BEGINNING OF SIMULATION =   730.0000    D   
 .....................................................................

                     CUMMULATIVE MASS BUDGETS AT END OF TRANSPORT STEP   13, TIME STEP    1, STRESS PERIOD    1
                     ------------------------------------------------------------------------------------------

                                                             IN                           OUT
                                                      ----------------             ----------------
                               CONSTANT CONCENTRATION:    0.000000                    0.000000    
                                        CONSTANT HEAD:    0.000000                  -0.3485677E-28
                                                WELLS:   0.1460000E+10                0.000000    
                               1ST/0TH ORDER REACTION:    0.000000                    0.000000    
                                MASS STORAGE (SOLUTE):   0.1109330E-34              -0.9634898E+09
                                MASS STORAGE (SORBED):   0.1009442E-30              -0.5350421E+09
                            ---------------------------------------------------------------------------
                                              [TOTAL]:   0.1460000E+10 KG           -0.1498532E+10 KG  

                                                          NET (IN - OUT):  -0.3853197E+08
                                                   DISCREPANCY (PERCENT):   -2.604803    


                                   ++++++++++++++++++++++++++++++++++++++++++++++++++++++++++++++
                                                       STRESS PERIOD NO.  002
                                   ++++++++++++++++++++++++++++++++++++++++++++++++++++++++++++++


 LENGTH OF CURRENT STRESS PERIOD =   730.0000    
 NUMBER OF TIME STEPS FOR CURRENT STRESS PERIOD =    1
 TIME STEP MULTIPLIER USED IN FLOW SOLUTION =   1.000000    

 ***Type of Transport Simulation is TRANSIENT

 USER-SPECIFIED TRANSPORT STEPSIZE =   0.000000    D   
 MAXIMUM NUMBER OF TRANSPORT STEPS ALLOWED  IN ONE FLOW TIME STEP =     50000
 MULTIPLIER FOR SUCCESSIVE TRANSPORT STEPS  [USED IN IMPLICIT SCHEMES] =     1.000
 MAXIMUM TRANSPORT STEP SIZE  [USED IN IMPLICIT SCHEMES] =   0.000000    D   

       NO    LAYER   ROW   COLUMN   CONCENTRATION       TYPE            COMPONENT
       1       1      16      26       10000.00         WELL                1
       1       1      16      26       20000.00         WELL                2


                                          ================================================
                                                         TIME STEP NO.  001
                                          ================================================

 FROM TIME =   730.00     TO    1460.0    


                    "THKSAT          " FLOW TERMS FOR TIME STEP  1, STRESS PERIOD  2 READ UNFORMATTED ON UNIT 10
                    --------------------------------------------------------------------------------------------

                    "QXX             " FLOW TERMS FOR TIME STEP  1, STRESS PERIOD  2 READ UNFORMATTED ON UNIT 10
                    --------------------------------------------------------------------------------------------

                    "QYY             " FLOW TERMS FOR TIME STEP  1, STRESS PERIOD  2 READ UNFORMATTED ON UNIT 10
                    --------------------------------------------------------------------------------------------

 MAXIMUM STEPSIZE DURING WHICH ANY PARTICLE CANNOT MOVE MORE THAN ONE CELL
 =  152.6    (WHEN MIN. R.F.=1)  AT K=   1, I=  20, J=  38

 MAXIMUM STEPSIZE WHICH MEETS STABILITY CRITERION OF THE ADVECTION TERM
 (FOR PURE FINITE-DIFFERENCE OPTION, MIXELM=0) 
 =  119.6    (WHEN MIN. R.F.=1)  AT K=   1, I=  16, J=  26

                    "CNH             " FLOW TERMS FOR TIME STEP  1, STRESS PERIOD  2 READ UNFORMATTED ON UNIT 10
                    --------------------------------------------------------------------------------------------

                    "WEL             " FLOW TERMS FOR TIME STEP  1, STRESS PERIOD  2 READ UNFORMATTED ON UNIT 10
                    --------------------------------------------------------------------------------------------


 TOTAL NUMBER OF POINT SOURCES/SINKS PRESENT IN THE FLOW MODEL =    83

 MAXIMUM STEPSIZE WHICH MEETS STABILITY CRITERION OF THE SINK & SOURCE TERM
 =  146.5    (WHEN MIN. R.F.=1)  AT K=   1, I=  16, J=  26

 MAXIMUM STEPSIZE WHICH MEETS STABILITY CRITERION OF THE DISPERSION TERM
 =  51.85    (WHEN MIN. R.F.=1)  AT K=   1, I=  16, J=  26


     1 CALLS TO GCG PACKAGE FOR TRANSPORT TIME STEP   1 IN FLOW TIME STEP   1 STRESS PERIOD   2
     4 TOTAL ITERATIONS


     1 CALLS TO GCG PACKAGE FOR TRANSPORT TIME STEP   1 IN FLOW TIME STEP   1 STRESS PERIOD   2
     4 TOTAL ITERATIONS



 >>>>>>>>>>>>>>>>>>>>>>>>>>>>>>>>>>>>>>>>>>>>>>>>>>>>>>>FOR COMPONENT NO. 01<<<<<<<<<<<<<<<<<<<<<<<<<<<<<<<<<<<<<<<<<<<<<<<<<<<<<<<


                                            -------------------------------------------
                                                      TRANSPORT STEP NO.    1
                                            -------------------------------------------

 TOTAL ELAPSED TIME SINCE BEGINNING OF SIMULATION =   789.8112    D   
 .....................................................................

                     CUMMULATIVE MASS BUDGETS AT END OF TRANSPORT STEP    1, TIME STEP    1, STRESS PERIOD    2
                     ------------------------------------------------------------------------------------------

                                                             IN                           OUT
                                                      ----------------             ----------------
                               CONSTANT CONCENTRATION:    0.000000                    0.000000    
                                        CONSTANT HEAD:    0.000000                  -0.1892652E-28
                                                WELLS:   0.7898112E+09                0.000000    
                               1ST/0TH ORDER REACTION:    0.000000                    0.000000    
                                MASS STORAGE (SOLUTE):   0.6720173E-11              -0.6314547E+09
                                MASS STORAGE (SORBED):   0.8472429E-10              -0.1639282E+09
                            ---------------------------------------------------------------------------
                                              [TOTAL]:   0.7898112E+09 KG           -0.7953828E+09 KG  

                                                          NET (IN - OUT):   -5571648.    
                                                   DISCREPANCY (PERCENT):  -0.7029610    



 >>>>>>>>>>>>>>>>>>>>>>>>>>>>>>>>>>>>>>>>>>>>>>>>>>>>>>>FOR COMPONENT NO. 02<<<<<<<<<<<<<<<<<<<<<<<<<<<<<<<<<<<<<<<<<<<<<<<<<<<<<<<


                                            -------------------------------------------
                                                      TRANSPORT STEP NO.    1
                                            -------------------------------------------

 TOTAL ELAPSED TIME SINCE BEGINNING OF SIMULATION =   789.8112    D   
 .....................................................................

                     CUMMULATIVE MASS BUDGETS AT END OF TRANSPORT STEP    1, TIME STEP    1, STRESS PERIOD    2
                     ------------------------------------------------------------------------------------------

                                                             IN                           OUT
                                                      ----------------             ----------------
                               CONSTANT CONCENTRATION:    0.000000                    0.000000    
                                        CONSTANT HEAD:    0.000000                  -0.3772204E-28
                                                WELLS:   0.1579622E+10                0.000000    
                               1ST/0TH ORDER REACTION:    0.000000                    0.000000    
                                MASS STORAGE (SOLUTE):   0.1295857E-34              -0.1038875E+10
                                MASS STORAGE (SORBED):   0.1208326E-30              -0.5774597E+09
                            ---------------------------------------------------------------------------
                                              [TOTAL]:   0.1579622E+10 KG           -0.1616335E+10 KG  

                                                          NET (IN - OUT):  -0.3671270E+08
                                                   DISCREPANCY (PERCENT):   -2.297446    
     1 CALLS TO GCG PACKAGE FOR TRANSPORT TIME STEP   2 IN FLOW TIME STEP   1 STRESS PERIOD   2
     4 TOTAL ITERATIONS
     1 CALLS TO GCG PACKAGE FOR TRANSPORT TIME STEP   2 IN FLOW TIME STEP   1 STRESS PERIOD   2
     4 TOTAL ITERATIONS



 >>>>>>>>>>>>>>>>>>>>>>>>>>>>>>>>>>>>>>>>>>>>>>>>>>>>>>>FOR COMPONENT NO. 01<<<<<<<<<<<<<<<<<<<<<<<<<<<<<<<<<<<<<<<<<<<<<<<<<<<<<<<


                                            -------------------------------------------
                                                      TRANSPORT STEP NO.    2
                                            -------------------------------------------

 TOTAL ELAPSED TIME SINCE BEGINNING OF SIMULATION =   849.6224    D   
 .....................................................................

                     CUMMULATIVE MASS BUDGETS AT END OF TRANSPORT STEP    2, TIME STEP    1, STRESS PERIOD    2
                     ------------------------------------------------------------------------------------------

                                                             IN                           OUT
                                                      ----------------             ----------------
                               CONSTANT CONCENTRATION:    0.000000                    0.000000    
                                        CONSTANT HEAD:    0.000000                  -0.2037064E-28
                                                WELLS:   0.8496224E+09                0.000000    
                               1ST/0TH ORDER REACTION:    0.000000                    0.000000    
                                MASS STORAGE (SOLUTE):   0.6720173E-11              -0.6783309E+09
                                MASS STORAGE (SORBED):   0.8472429E-10              -0.1762538E+09
                            ---------------------------------------------------------------------------
                                              [TOTAL]:   0.8496224E+09 KG           -0.8545847E+09 KG  

                                                          NET (IN - OUT):   -4962304.    
                                                   DISCREPANCY (PERCENT):  -0.5823593    



 >>>>>>>>>>>>>>>>>>>>>>>>>>>>>>>>>>>>>>>>>>>>>>>>>>>>>>>FOR COMPONENT NO. 02<<<<<<<<<<<<<<<<<<<<<<<<<<<<<<<<<<<<<<<<<<<<<<<<<<<<<<<


                                            -------------------------------------------
                                                      TRANSPORT STEP NO.    2
                                            -------------------------------------------

 TOTAL ELAPSED TIME SINCE BEGINNING OF SIMULATION =   849.6224    D   
 .....................................................................

                     CUMMULATIVE MASS BUDGETS AT END OF TRANSPORT STEP    2, TIME STEP    1, STRESS PERIOD    2
                     ------------------------------------------------------------------------------------------

                                                             IN                           OUT
                                                      ----------------             ----------------
                               CONSTANT CONCENTRATION:    0.000000                    0.000000    
                                        CONSTANT HEAD:    0.000000                  -0.4058873E-28
                                                WELLS:   0.1699245E+10                0.000000    
                               1ST/0TH ORDER REACTION:    0.000000                    0.000000    
                                MASS STORAGE (SOLUTE):   0.1372108E-34              -0.1114263E+10
                                MASS STORAGE (SORBED):   0.1271969E-30              -0.6199046E+09
                            ---------------------------------------------------------------------------
                                              [TOTAL]:   0.1699245E+10 KG           -0.1734168E+10 KG  

                                                          NET (IN - OUT):  -0.3492314E+08
                                                   DISCREPANCY (PERCENT):   -2.034311    
     1 CALLS TO GCG PACKAGE FOR TRANSPORT TIME STEP   3 IN FLOW TIME STEP   1 STRESS PERIOD   2
     4 TOTAL ITERATIONS
     1 CALLS TO GCG PACKAGE FOR TRANSPORT TIME STEP   3 IN FLOW TIME STEP   1 STRESS PERIOD   2
     4 TOTAL ITERATIONS



 >>>>>>>>>>>>>>>>>>>>>>>>>>>>>>>>>>>>>>>>>>>>>>>>>>>>>>>FOR COMPONENT NO. 01<<<<<<<<<<<<<<<<<<<<<<<<<<<<<<<<<<<<<<<<<<<<<<<<<<<<<<<


                                            -------------------------------------------
                                                      TRANSPORT STEP NO.    3
                                            -------------------------------------------

 TOTAL ELAPSED TIME SINCE BEGINNING OF SIMULATION =   909.4337    D   
 .....................................................................

                     CUMMULATIVE MASS BUDGETS AT END OF TRANSPORT STEP    3, TIME STEP    1, STRESS PERIOD    2
                     ------------------------------------------------------------------------------------------

                                                             IN                           OUT
                                                      ----------------             ----------------
                               CONSTANT CONCENTRATION:    0.000000                    0.000000    
                                        CONSTANT HEAD:    0.000000                  -0.2181630E-28
                                                WELLS:   0.9094336E+09                0.000000    
                               1ST/0TH ORDER REACTION:    0.000000                    0.000000    
                                MASS STORAGE (SOLUTE):   0.6720173E-11              -0.7252061E+09
                                MASS STORAGE (SORBED):   0.8472429E-10              -0.1885884E+09
                            ---------------------------------------------------------------------------
                                              [TOTAL]:   0.9094336E+09 KG           -0.9137944E+09 KG  

                                                          NET (IN - OUT):   -4360832.    
                                                   DISCREPANCY (PERCENT):  -0.4783639    



 >>>>>>>>>>>>>>>>>>>>>>>>>>>>>>>>>>>>>>>>>>>>>>>>>>>>>>>FOR COMPONENT NO. 02<<<<<<<<<<<<<<<<<<<<<<<<<<<<<<<<<<<<<<<<<<<<<<<<<<<<<<<


[...]


                                            -------------------------------------------
                                                      TRANSPORT STEP NO.    3
                                            -------------------------------------------

 TOTAL ELAPSED TIME SINCE BEGINNING OF SIMULATION =   14417.50    D   
 .....................................................................

                     CUMMULATIVE MASS BUDGETS AT END OF TRANSPORT STEP    3, TIME STEP    1, STRESS PERIOD   49
                     ------------------------------------------------------------------------------------------

                                                             IN                           OUT
                                                      ----------------             ----------------
                               CONSTANT CONCENTRATION:    0.000000                    0.000000    
                                        CONSTANT HEAD:    0.000000                  -0.8385085E+09
                                                WELLS:   0.7300015E+10                0.000000    
                               1ST/0TH ORDER REACTION:    0.000000                    0.000000    
                                MASS STORAGE (SOLUTE):   0.5144278E+10              -0.1009999E+11
                                MASS STORAGE (SORBED):   0.1326291E+10              -0.2766217E+10
                            ---------------------------------------------------------------------------
                                              [TOTAL]:   0.1377058E+11 KG           -0.1370472E+11 KG  

                                                          NET (IN - OUT):   0.6586880E+08
                                                   DISCREPANCY (PERCENT):   0.4794765    



 >>>>>>>>>>>>>>>>>>>>>>>>>>>>>>>>>>>>>>>>>>>>>>>>>>>>>>>FOR COMPONENT NO. 02<<<<<<<<<<<<<<<<<<<<<<<<<<<<<<<<<<<<<<<<<<<<<<<<<<<<<<<


                                            -------------------------------------------
                                                      TRANSPORT STEP NO.    3
                                            -------------------------------------------

 TOTAL ELAPSED TIME SINCE BEGINNING OF SIMULATION =   14417.50    D   
 .....................................................................

                     CUMMULATIVE MASS BUDGETS AT END OF TRANSPORT STEP    3, TIME STEP    1, STRESS PERIOD   49
                     ------------------------------------------------------------------------------------------

                                                             IN                           OUT
                                                      ----------------             ----------------
                               CONSTANT CONCENTRATION:    0.000000                    0.000000    
                                        CONSTANT HEAD:    0.000000                  -0.2508677E+09
                                                WELLS:   0.1460003E+11                0.000000    
                               1ST/0TH ORDER REACTION:    0.000000                    0.000000    
                                MASS STORAGE (SOLUTE):   0.8067107E+10              -0.1677439E+11
                                MASS STORAGE (SORBED):   0.4412625E+10              -0.9891614E+10
                            ---------------------------------------------------------------------------
                                              [TOTAL]:   0.2707976E+11 KG           -0.2691687E+11 KG  

                                                          NET (IN - OUT):   0.1628938E+09
                                                   DISCREPANCY (PERCENT):   0.6033481    


                                   ++++++++++++++++++++++++++++++++++++++++++++++++++++++++++++++
                                                       STRESS PERIOD NO.  050
                                   ++++++++++++++++++++++++++++++++++++++++++++++++++++++++++++++


 LENGTH OF CURRENT STRESS PERIOD =   182.5000    
 NUMBER OF TIME STEPS FOR CURRENT STRESS PERIOD =    1
 TIME STEP MULTIPLIER USED IN FLOW SOLUTION =   1.000000    

 ***Type of Transport Simulation is TRANSIENT

 USER-SPECIFIED TRANSPORT STEPSIZE =   0.000000    D   
 MAXIMUM NUMBER OF TRANSPORT STEPS ALLOWED  IN ONE FLOW TIME STEP =     50000
 MULTIPLIER FOR SUCCESSIVE TRANSPORT STEPS  [USED IN IMPLICIT SCHEMES] =     1.000
 MAXIMUM TRANSPORT STEP SIZE  [USED IN IMPLICIT SCHEMES] =   0.000000    D   

 POINT SINKS/SOURCES OF SPECIFIED CONCENTRATION REUSED FROM LAST STRESS PERIOD


                                          ================================================
                                                         TIME STEP NO.  001
                                          ================================================

 FROM TIME =   14418.     TO    14600.    


                    "THKSAT          " FLOW TERMS FOR TIME STEP  1, STRESS PERIOD 50 READ UNFORMATTED ON UNIT 10
                    --------------------------------------------------------------------------------------------

                    "QXX             " FLOW TERMS FOR TIME STEP  1, STRESS PERIOD 50 READ UNFORMATTED ON UNIT 10
                    --------------------------------------------------------------------------------------------

                    "QYY             " FLOW TERMS FOR TIME STEP  1, STRESS PERIOD 50 READ UNFORMATTED ON UNIT 10
                    --------------------------------------------------------------------------------------------

 MAXIMUM STEPSIZE DURING WHICH ANY PARTICLE CANNOT MOVE MORE THAN ONE CELL
 =  155.0    (WHEN MIN. R.F.=1)  AT K=   1, I=  20, J=  39

 MAXIMUM STEPSIZE WHICH MEETS STABILITY CRITERION OF THE ADVECTION TERM
 (FOR PURE FINITE-DIFFERENCE OPTION, MIXELM=0) 
 =  146.2    (WHEN MIN. R.F.=1)  AT K=   1, I=  25, J=  54

                    "CNH             " FLOW TERMS FOR TIME STEP  1, STRESS PERIOD 50 READ UNFORMATTED ON UNIT 10
                    --------------------------------------------------------------------------------------------

                    "WEL             " FLOW TERMS FOR TIME STEP  1, STRESS PERIOD 50 READ UNFORMATTED ON UNIT 10
                    --------------------------------------------------------------------------------------------


 TOTAL NUMBER OF POINT SOURCES/SINKS PRESENT IN THE FLOW MODEL =    84

 MAXIMUM STEPSIZE WHICH MEETS STABILITY CRITERION OF THE SINK & SOURCE TERM
 =  182.4    (WHEN MIN. R.F.=1)  AT K=   1, I=  16, J=   1

 MAXIMUM STEPSIZE WHICH MEETS STABILITY CRITERION OF THE DISPERSION TERM
 =  53.25    (WHEN MIN. R.F.=1)  AT K=   1, I=  20, J=  38


     1 CALLS TO GCG PACKAGE FOR TRANSPORT TIME STEP   1 IN FLOW TIME STEP   1 STRESS PERIOD  50
     3 TOTAL ITERATIONS


     1 CALLS TO GCG PACKAGE FOR TRANSPORT TIME STEP   1 IN FLOW TIME STEP   1 STRESS PERIOD  50
     3 TOTAL ITERATIONS



 >>>>>>>>>>>>>>>>>>>>>>>>>>>>>>>>>>>>>>>>>>>>>>>>>>>>>>>FOR COMPONENT NO. 01<<<<<<<<<<<<<<<<<<<<<<<<<<<<<<<<<<<<<<<<<<<<<<<<<<<<<<<


                                            -------------------------------------------
                                                      TRANSPORT STEP NO.    1
                                            -------------------------------------------

 TOTAL ELAPSED TIME SINCE BEGINNING OF SIMULATION =   14490.59    D   
 .....................................................................

                     CUMMULATIVE MASS BUDGETS AT END OF TRANSPORT STEP    1, TIME STEP    1, STRESS PERIOD   50
                     ------------------------------------------------------------------------------------------

                                                             IN                           OUT
                                                      ----------------             ----------------
                               CONSTANT CONCENTRATION:    0.000000                    0.000000    
                                        CONSTANT HEAD:    0.000000                  -0.8691040E+09
                                                WELLS:   0.7300015E+10                0.000000    
                               1ST/0TH ORDER REACTION:    0.000000                    0.000000    
                                MASS STORAGE (SOLUTE):   0.5191947E+10              -0.1012358E+11
                                MASS STORAGE (SORBED):   0.1339348E+10              -0.2772555E+10
                            ---------------------------------------------------------------------------
                                              [TOTAL]:   0.1383131E+11 KG           -0.1376524E+11 KG  

                                                          NET (IN - OUT):   0.6607155E+08
                                                   DISCREPANCY (PERCENT):   0.4788392    



 >>>>>>>>>>>>>>>>>>>>>>>>>>>>>>>>>>>>>>>>>>>>>>>>>>>>>>>FOR COMPONENT NO. 02<<<<<<<<<<<<<<<<<<<<<<<<<<<<<<<<<<<<<<<<<<<<<<<<<<<<<<<


                                            -------------------------------------------
                                                      TRANSPORT STEP NO.    1
                                            -------------------------------------------

 TOTAL ELAPSED TIME SINCE BEGINNING OF SIMULATION =   14490.59    D   
 .....................................................................

                     CUMMULATIVE MASS BUDGETS AT END OF TRANSPORT STEP    1, TIME STEP    1, STRESS PERIOD   50
                     ------------------------------------------------------------------------------------------

                                                             IN                           OUT
                                                      ----------------             ----------------
                               CONSTANT CONCENTRATION:    0.000000                    0.000000    
                                        CONSTANT HEAD:    0.000000                  -0.2661339E+09
                                                WELLS:   0.1460003E+11                0.000000    
                               1ST/0TH ORDER REACTION:    0.000000                    0.000000    
                                MASS STORAGE (SOLUTE):   0.8139687E+10              -0.1683623E+11
                                MASS STORAGE (SORBED):   0.4454892E+10              -0.9929026E+10
                            ---------------------------------------------------------------------------
                                              [TOTAL]:   0.2719461E+11 KG           -0.2703139E+11 KG  

                                                          NET (IN - OUT):   0.1632154E+09
                                                   DISCREPANCY (PERCENT):   0.6019819    
     1 CALLS TO GCG PACKAGE FOR TRANSPORT TIME STEP   2 IN FLOW TIME STEP   1 STRESS PERIOD  50
     3 TOTAL ITERATIONS
     1 CALLS TO GCG PACKAGE FOR TRANSPORT TIME STEP   2 IN FLOW TIME STEP   1 STRESS PERIOD  50
     3 TOTAL ITERATIONS



 >>>>>>>>>>>>>>>>>>>>>>>>>>>>>>>>>>>>>>>>>>>>>>>>>>>>>>>FOR COMPONENT NO. 01<<<<<<<<<<<<<<<<<<<<<<<<<<<<<<<<<<<<<<<<<<<<<<<<<<<<<<<


                                            -------------------------------------------
                                                      TRANSPORT STEP NO.    2
                                            -------------------------------------------

 TOTAL ELAPSED TIME SINCE BEGINNING OF SIMULATION =   14563.69    D   
 .....................................................................

                     CUMMULATIVE MASS BUDGETS AT END OF TRANSPORT STEP    2, TIME STEP    1, STRESS PERIOD   50
                     ------------------------------------------------------------------------------------------

                                                             IN                           OUT
                                                      ----------------             ----------------
                               CONSTANT CONCENTRATION:    0.000000                    0.000000    
                                        CONSTANT HEAD:    0.000000                  -0.9003241E+09
                                                WELLS:   0.7300015E+10                0.000000    
                               1ST/0TH ORDER REACTION:    0.000000                    0.000000    
                                MASS STORAGE (SOLUTE):   0.5239514E+10              -0.1014658E+11
                                MASS STORAGE (SORBED):   0.1352385E+10              -0.2778730E+10
                            ---------------------------------------------------------------------------
                                              [TOTAL]:   0.1389191E+11 KG           -0.1382564E+11 KG  

                                                          NET (IN - OUT):   0.6627430E+08
                                                   DISCREPANCY (PERCENT):   0.4782118    



 >>>>>>>>>>>>>>>>>>>>>>>>>>>>>>>>>>>>>>>>>>>>>>>>>>>>>>>FOR COMPONENT NO. 02<<<<<<<<<<<<<<<<<<<<<<<<<<<<<<<<<<<<<<<<<<<<<<<<<<<<<<<


                                            -------------------------------------------
                                                      TRANSPORT STEP NO.    2
                                            -------------------------------------------

 TOTAL ELAPSED TIME SINCE BEGINNING OF SIMULATION =   14563.69    D   
 .....................................................................

                     CUMMULATIVE MASS BUDGETS AT END OF TRANSPORT STEP    2, TIME STEP    1, STRESS PERIOD   50
                     ------------------------------------------------------------------------------------------

                                                             IN                           OUT
                                                      ----------------             ----------------
                               CONSTANT CONCENTRATION:    0.000000                    0.000000    
                                        CONSTANT HEAD:    0.000000                  -0.2820610E+09
                                                WELLS:   0.1460003E+11                0.000000    
                               1ST/0TH ORDER REACTION:    0.000000                    0.000000    
                                MASS STORAGE (SOLUTE):   0.8212085E+10              -0.1689752E+11
                                MASS STORAGE (SORBED):   0.4497084E+10              -0.9966078E+10
                            ---------------------------------------------------------------------------
                                              [TOTAL]:   0.2730920E+11 KG           -0.2714566E+11 KG  

                                                          NET (IN - OUT):   0.1635410E+09
                                                   DISCREPANCY (PERCENT):   0.6006479    
     1 CALLS TO GCG PACKAGE FOR TRANSPORT TIME STEP   3 IN FLOW TIME STEP   1 STRESS PERIOD  50
     3 TOTAL ITERATIONS
  MAXIMUM CONCENTRATION CHANGES FOR EACH ITERATION:
  MAX. CHANGE LAYER,ROW,COL MAX. CHANGE LAYER,ROW,COL MAX. CHANGE LAYER,ROW,COL MAX. CHANGE LAYER,ROW,COL MAX. CHANGE LAYER,ROW,COL
 ------------------------------------------------------------------------------------------------------------------------------------
   0.6242E-01 (  1, 21, 81)  0.2271E-03 (  1, 23, 80)  0.8345E-06 (  1, 27, 79)
     1 CALLS TO GCG PACKAGE FOR TRANSPORT TIME STEP   3 IN FLOW TIME STEP   1 STRESS PERIOD  50
     3 TOTAL ITERATIONS
  MAXIMUM CONCENTRATION CHANGES FOR EACH ITERATION:
  MAX. CHANGE LAYER,ROW,COL MAX. CHANGE LAYER,ROW,COL MAX. CHANGE LAYER,ROW,COL MAX. CHANGE LAYER,ROW,COL MAX. CHANGE LAYER,ROW,COL
 ------------------------------------------------------------------------------------------------------------------------------------
   0.1537E-01 (  1, 22, 81)  0.4315E-04 (  1, 25, 80)  0.1192E-06 (  1, 27, 79)



 >>>>>>>>>>>>>>>>>>>>>>>>>>>>>>>>>>>>>>>>>>>>>>>>>>>>>>>FOR COMPONENT NO. 01<<<<<<<<<<<<<<<<<<<<<<<<<<<<<<<<<<<<<<<<<<<<<<<<<<<<<<<


                                            -------------------------------------------
                                                      TRANSPORT STEP NO.    3
                                            -------------------------------------------

 TOTAL ELAPSED TIME SINCE BEGINNING OF SIMULATION =   14600.00    D   
 .....................................................................

                     CUMMULATIVE MASS BUDGETS AT END OF TRANSPORT STEP    3, TIME STEP    1, STRESS PERIOD   50
                     ------------------------------------------------------------------------------------------

                                                             IN                           OUT
                                                      ----------------             ----------------
                               CONSTANT CONCENTRATION:    0.000000                    0.000000    
                                        CONSTANT HEAD:    0.000000                  -0.9159997E+09
                                                WELLS:   0.7300015E+10                0.000000    
                               1ST/0TH ORDER REACTION:    0.000000                    0.000000    
                                MASS STORAGE (SOLUTE):   0.5263099E+10              -0.1015787E+11
                                MASS STORAGE (SORBED):   0.1358849E+10              -0.2781761E+10
                            ---------------------------------------------------------------------------
                                              [TOTAL]:   0.1392196E+11 KG           -0.1385564E+11 KG  

                                                          NET (IN - OUT):   0.6632755E+08
                                                   DISCREPANCY (PERCENT):   0.4775615    



 >>>>>>>>>>>>>>>>>>>>>>>>>>>>>>>>>>>>>>>>>>>>>>>>>>>>>>>FOR COMPONENT NO. 02<<<<<<<<<<<<<<<<<<<<<<<<<<<<<<<<<<<<<<<<<<<<<<<<<<<<<<<


                                            -------------------------------------------
                                                      TRANSPORT STEP NO.    3
                                            -------------------------------------------

 TOTAL ELAPSED TIME SINCE BEGINNING OF SIMULATION =   14600.00    D   
 .....................................................................

                     CUMMULATIVE MASS BUDGETS AT END OF TRANSPORT STEP    3, TIME STEP    1, STRESS PERIOD   50
                     ------------------------------------------------------------------------------------------

                                                             IN                           OUT
                                                      ----------------             ----------------
                               CONSTANT CONCENTRATION:    0.000000                    0.000000    
                                        CONSTANT HEAD:    0.000000                  -0.2901470E+09
                                                WELLS:   0.1460003E+11                0.000000    
                               1ST/0TH ORDER REACTION:    0.000000                    0.000000    
                                MASS STORAGE (SOLUTE):   0.8247966E+10              -0.1692783E+11
                                MASS STORAGE (SORBED):   0.4518003E+10              -0.9984403E+10
                            ---------------------------------------------------------------------------
                                              [TOTAL]:   0.2736600E+11 KG           -0.2720238E+11 KG  

                                                          NET (IN - OUT):   0.1636229E+09
                                                   DISCREPANCY (PERCENT):   0.5996987    
  ----- 
 | M T |
 | 3 D | END OF MODEL OUTPUT
  ----- 
