 LISTING FILE: binary_files_mt.list
                         UNIT  16

 OPENING mt3d_link.ftl
 FILE TYPE:FTL   UNIT  10

 OPENING binary_files_mt.btn
 FILE TYPE:BTN   UNIT  31

 OPENING binary_files_mt.adv
 FILE TYPE:ADV   UNIT  32

 OPENING binary_files_mt.dsp
 FILE TYPE:DSP   UNIT  33

 OPENING binary_files_mt.rct
 FILE TYPE:RCT   UNIT  36

 OPENING binary_files_mt.ssm
 FILE TYPE:SSM   UNIT  34

 OPENING binary_files_mt.gcg
 FILE TYPE:GCG   UNIT  35

                              +++++++++++++++++++++++++++++++++++++++++++++++++++++++++++++++++++++++
                              +                                                                     +
                              +                               MT3DMS                                +
                              +             A Modular 3D Multi-Species Transport Model              +
                              +    For Simulation of Advection, Dispersion and Chemical Reactions   +
                              +                of Contaminants in Groundwater Systems               +
                              +                                                                     +
                              +++++++++++++++++++++++++++++++++++++++++++++++++++++++++++++++++++++++

  ----- 
 | M T | ## BTN for MT3DMS, generated by Flopy.                                          
 | 3 D | ##                                                                              
  ----- 
 THE TRANSPORT MODEL CONSISTS OF     1 LAYER(S)   41 ROW(S)   81 COLUMN(S)
 NUMBER OF STRESS PERIOD(S) FOR TRANSPORT SIMULATION =   50
 NUMBER OF ALL COMPONENTS INCLUDED IN SIMULATION =    1
 NUMBER OF MOBILE COMPONENTS INCLUDED IN SIMULATION =    1
 UNIT FOR TIME IS D   ;  UNIT FOR LENGTH IS M   ;  UNIT FOR MASS IS KG  
 OPTIONAL PACKAGES INCLUDED IN CURRENT SIMULATION:
  o ADV   ON UNIT 32
  o DSP   ON UNIT 33
  o SSM   ON UNIT 34
  o RCT   ON UNIT 36
  o GCG   ON UNIT 35

 BTN5 -- BASIC TRANSPORT PACKAGE, VERSION 5, FEBRUARY 2010, INPUT READ FROM UNIT 31
      53380 ELEMENTS OF THE  X ARRAY USED BY THE BTN PACKAGE
       3322 ELEMENTS OF THE IX ARRAY USED BY THE BTN PACKAGE

 FMI5 -- FLOW MODEL INTERFACE PACKAGE, VERSION 5, FEBRUARY 2010, INPUT READ FROM UNIT 10
 FLOW MODEL IS STEADY-STATE
 FLOW MODEL CONTAINS CONSTANT-HEAD CELLS

 ADV5 -- ADVECTION PACKAGE, VERSION 5, FEBRUARY 2010, INPUT READ FROM UNIT 32
 ADVECTION IS SOLVED WITH THE ULTIMATE SCHEME
 COURANT NUMBER ALLOWED IN SOLVING THE ADVECTION TERM = 0.500    
          0 ELEMENTS OF THE  X ARRAY USED BY THE ADV PACKAGE
          0 ELEMENTS OF THE IX ARRAY USED BY THE ADV PACKAGE

 DSP5 -- DISPERSION PACKAGE, VERSION 5, FEBRUARY 2010, INPUT READ FROM UNIT 33
      36533 ELEMENTS OF THE  X ARRAY USED BY THE DSP PACKAGE
          0 ELEMENTS OF THE IX ARRAY USED BY THE DSP PACKAGE

 SSM5 -- SINK & SOURCE MIXING PACKAGE, VERSION 5, FEBRUARY 2010, INPUT READ FROM UNIT 34
 HEADER LINE OF THE SSM PACKAGE INPUT FILE:
  T F F F F F F F F F F F F F F F                                                                                                                                                                        
 MAJOR STRESS COMPONENTS PRESENT IN THE FLOW MODEL:
  o WELL [WEL]
 MAXIMUM NUMBER OF POINT SINKS/SOURCES =      83
       1079 ELEMENTS OF THE  X ARRAY USED BY THE SSM PACKAGE
          0 ELEMENTS OF THE IX ARRAY BY THE SSM PACKAGE

 RCT5 -- CHEMICAL REACTION PACKAGE, VERSION 5, FEBRUARY 2010, INPUT READ FROM UNIT 36
 TYPE OF SORPTION SELECTED IS [FREUNDLICH]
 FIRST-ORDER IRREVERSIBLE REACTION [RADIOACTIVE DECAY OR BIODEGRADATION] IS SIMULATED
 REACTION COEFFICIENTS ASSIGNED CELL-BY-CELL
 INITIAL SORBED/IMMOBILE PHASE CONCENTRATION ASSIGNED BY DEFAULT
      16605 ELEMENTS OF THE  X ARRAY USED BY THE RCT PACKAGE
          0 ELEMENTS OF THE IX ARRAY USED BY THE RCT PACKAGE

 GCG5 -- GENERALIZED CONJUGATE GRADIENT SOLVER PACKAGE, VERSION 5, FEBRUARY 2010 INPUT READ FROM UNIT 35
 MAXIMUM OF    1 OUTER ITERATIONS
        AND   50 INNER ITERATIONS ALLOWED FOR CLOSURE
 THE PRECONDITIONING TYPE SELECTED IS MODIFIED INCOMPLETE CHOLESKY (MIC).
 DISPERSION CROSS TERMS LUMPED INTO RIGHT-HAND-SIDE
      73112 ELEMENTS OF THE  X ARRAY USED BY THE GCG PACKAGE
        150 ELEMENTS OF THE IX ARRAY USED BY THE GCG PACKAGE

 ..........................................
 ELEMENTS OF THE  X ARRAY USED =    180710
 ELEMENTS OF THE IX ARRAY USED =      3473
 ..........................................

 LAYER NUMBER  AQUIFER TYPE
 ------------  ------------
       1            0
                                       WIDTH ALONG ROWS (DELR)  =   31.25000    
                                       WIDTH ALONG COLS (DELC)  =   31.25000    
                                       TOP ELEV. OF 1ST LAYER   =   0.000000    
                                       CELL THICKNESS (DZ)      =   50.00000     FOR LAYER  1
                                       POROSITY                 =  0.3000000     FOR LAYER  1
                                       CONCN. BOUNDARY ARRAY    =              1 FOR LAYER  1
                                       INITIAL CONC.: COMP.  01 =   0.000000     FOR LAYER  1

 VALUE INDICATING INACTIVE CONCENTRATION CELLS =   0.1000000E+31
 MINIMUM SATURATED THICKNESS [THKMIN] ALLOWED =  0.0100 OF TOTAL CELL THICKNESS


 OUTPUT CONTROL OPTIONS
 ----------------------

 DO NOT PRINT CELL CONCENTRATION
 DO NOT PRINT PARTICLE NUMBER IN EACH CELL
 DO NOT PRINT RETARDATION FACTOR
 DO NOT PRINT DISPERSION COEFFICIENT
 SAVE DISSOLVED PHASE CONCENTRATIONS IN UNFORMATTED FILES [MT3Dnnn.UCN]
  FOR EACH SPECIES ON UNITS 201 AND ABOVE
 SAVE SORBED/IMMOBILE PHASE CONCENTRATIONS IN UNFORMATTED FILES [MT3DnnnS.UCN]
  FOR EACH SPECIES ON UNITS 301 AND ABOVE, IF SORPTION/MASS TRANSFER SIMULATED

 SIMULATION RESULTS ARE SAVED EVERY   1 TRANSPORT STEP(S)

 NUMBER OF OBSERVATION POINTS =   20
 SAVE CONCENTRATIONS AT OBSERVATION POINTS IN FILES [MT3Dnnn.OBS]
  FOR EACH SPECIES ON UNITS 401 AND ABOVE, EVERY  1 TRANSPORT STEPS
 LOCATION OF OBSERVATION POINTS
 ..............................
 NUMBER  LAYER   ROW   COLUMN
   1        1     32     40
   2        1     19     47
   3        1     21     39
   4        1     28     67
   5        1     25     51
   6        1     13     22
   7        1     20     60
   8        1     31     23
   9        1     34     29
  10        1     19     56
  11        1     23     65
  12        1     22     29
  13        1     35     46
  14        1     18     35
  15        1      6     57
  16        1     31     50
  17        1      9     43
  18        1     22     51
  19        1     12     31
  20        1     32     31

 SAVE ONE-LINE SUMMARY OF MASS BUDGETS IN FILES [MT3Dnnn.MAS]
  FOR EACH SPECIES ON UNITS 601 AND ABOVE, EVERY  1 TRANSPORT STEPS

 MAXIMUM LENGTH ALONG THE X (J) AXIS =   2531.250    
 MAXIMUM LENGTH ALONG THE Y (I) AXIS =   1281.250    
 MAXIMUM LENGTH ALONG THE Z (K) AXIS =   50.00000    


 ADVECTION SOLUTION OPTIONS
 --------------------------

 ADVECTION IS SOLVED WITH THE ULTIMATE SCHEME
 COURANT NUMBER ALLOWED IN SOLVING THE ADVECTION TERM = 0.500    


 DISPERSION INPUT PARAMETERS
 ---------------------------

                                       LONG. DISPERSIVITY (AL)  =   35.00000     FOR LAYER  1
                                       H. TRANS./LONG. DISP.    =  0.3000000    
                                       V. TRANS./LONG. DISP.    =  0.1000000E-01
                                       DIFFUSION COEFFICIENT    =  0.1000000E-08


 SORPTION AND 1ST/0TH ORDER REACTION PARAMETERS
 ----------------------------------------------

                                       BULK DENSITY (RHOB)      =   1.587000     FOR LAYER  1
                                       1ST SORP. COEF. COMP. 01 =  0.1000000     FOR LAYER  1
                                       2ND SORP. COEF. COMP. 01 =  0.9000000     FOR LAYER  1
                                       SOLUTE RXN RATE: COMP 01 =   0.000000     FOR LAYER  1
                                       SORBED RXN RATE: COMP 01 =   0.000000     FOR LAYER  1

 MAXIMUM STEPSIZE WHICH MEETS STABILITY CRITERION OF THE REACTION TERM
 = 0.1000E+31 AT K=   0, I=   0, J=   0



                                               SOLUTION BY THE GENERALIZED CONJUGATE GRADIENT METHOD
                                               -----------------------------------------------------
                                     MAXIMUM OUTER ITERATIONS ALLOWED FOR CLOSURE =        1
                                     MAXIMUM INNER ITERATIONS ALLOWED FOR CLOSURE =       50
                                                    PRECONDITIONING TYPE SELECTED =    3
                                                           ACCELERATION PARAMETER =     1.0000    
                                       CONCENTRATION CHANGE CRITERION FOR CLOSURE =    0.10000E-04
                                       GCG CONCENTRATION CHANGE PRINTOUT INTERVAL =      999


                                   ++++++++++++++++++++++++++++++++++++++++++++++++++++++++++++++
                                                       STRESS PERIOD NO.  001
                                   ++++++++++++++++++++++++++++++++++++++++++++++++++++++++++++++


 LENGTH OF CURRENT STRESS PERIOD =   730.0000    
 NUMBER OF TIME STEPS FOR CURRENT STRESS PERIOD =    1
 TIME STEP MULTIPLIER USED IN FLOW SOLUTION =   1.000000    

 ***Type of Transport Simulation is TRANSIENT

 USER-SPECIFIED TRANSPORT STEPSIZE =   0.000000    D   
 MAXIMUM NUMBER OF TRANSPORT STEPS ALLOWED  IN ONE FLOW TIME STEP =     50000
 MULTIPLIER FOR SUCCESSIVE TRANSPORT STEPS  [USED IN IMPLICIT SCHEMES] =     1.000
 MAXIMUM TRANSPORT STEP SIZE  [USED IN IMPLICIT SCHEMES] =   0.000000    D   

       NO    LAYER   ROW   COLUMN   CONCENTRATION       TYPE            COMPONENT
       1       1      21      14       10000.00         WELL                1


                                          ================================================
                                                         TIME STEP NO.  001
                                          ================================================

 FROM TIME =   0.0000     TO    730.00    


                    "THKSAT          " FLOW TERMS FOR TIME STEP  1, STRESS PERIOD  1 READ UNFORMATTED ON UNIT 10
                    --------------------------------------------------------------------------------------------

                    "QXX             " FLOW TERMS FOR TIME STEP  1, STRESS PERIOD  1 READ UNFORMATTED ON UNIT 10
                    --------------------------------------------------------------------------------------------

                    "QYY             " FLOW TERMS FOR TIME STEP  1, STRESS PERIOD  1 READ UNFORMATTED ON UNIT 10
                    --------------------------------------------------------------------------------------------

 MAXIMUM STEPSIZE DURING WHICH ANY PARTICLE CANNOT MOVE MORE THAN ONE CELL
 =  67.14    (WHEN MIN. R.F.=1)  AT K=   1, I=  21, J=  15

 MAXIMUM STEPSIZE WHICH MEETS STABILITY CRITERION OF THE ADVECTION TERM
 (FOR PURE FINITE-DIFFERENCE OPTION, MIXELM=0) 
 =  29.86    (WHEN MIN. R.F.=1)  AT K=   1, I=  21, J=  14

                    "CNH             " FLOW TERMS FOR TIME STEP  1, STRESS PERIOD  1 READ UNFORMATTED ON UNIT 10
                    --------------------------------------------------------------------------------------------

                    "WEL             " FLOW TERMS FOR TIME STEP  1, STRESS PERIOD  1 READ UNFORMATTED ON UNIT 10
                    --------------------------------------------------------------------------------------------


 TOTAL NUMBER OF POINT SOURCES/SINKS PRESENT IN THE FLOW MODEL =    83

 MAXIMUM STEPSIZE WHICH MEETS STABILITY CRITERION OF THE SINK & SOURCE TERM
 =  17.25    (WHEN MIN. R.F.=1)  AT K=   1, I=  21, J=  14

 MAXIMUM STEPSIZE WHICH MEETS STABILITY CRITERION OF THE DISPERSION TERM
 =  13.42    (WHEN MIN. R.F.=1)  AT K=   1, I=  21, J=  14


     1 CALLS TO GCG PACKAGE FOR TRANSPORT TIME STEP   1 IN FLOW TIME STEP   1 STRESS PERIOD   1
     6 TOTAL ITERATIONS



 >>>>>>>>>>>>>>>>>>>>>>>>>>>>>>>>>>>>>>>>>>>>>>>>>>>>>>>FOR COMPONENT NO. 01<<<<<<<<<<<<<<<<<<<<<<<<<<<<<<<<<<<<<<<<<<<<<<<<<<<<<<<


                                            -------------------------------------------
                                                      TRANSPORT STEP NO.    1
                                            -------------------------------------------

 TOTAL ELAPSED TIME SINCE BEGINNING OF SIMULATION =   14.93201    D   
 .....................................................................

                     CUMMULATIVE MASS BUDGETS AT END OF TRANSPORT STEP    1, TIME STEP    1, STRESS PERIOD    1
                     ------------------------------------------------------------------------------------------

                                                             IN                           OUT
                                                      ----------------             ----------------
                               CONSTANT CONCENTRATION:    0.000000                    0.000000    
                                        CONSTANT HEAD:    0.000000                    0.000000    
                                                WELLS:   0.1267728E+09                0.000000    
                               1ST/0TH ORDER REACTION:    0.000000                    0.000000    
                                MASS STORAGE (SOLUTE):    0.000000                  -0.1267728E+09
                                MASS STORAGE (SORBED):    0.000000                  -0.2890494E+08
                            ---------------------------------------------------------------------------
                                              [TOTAL]:   0.1267728E+09 KG           -0.1556777E+09 KG  

                                                          NET (IN - OUT):  -0.2890495E+08
                                                   DISCREPANCY (PERCENT):   -20.46727    
     1 CALLS TO GCG PACKAGE FOR TRANSPORT TIME STEP   2 IN FLOW TIME STEP   1 STRESS PERIOD   1
     4 TOTAL ITERATIONS



 >>>>>>>>>>>>>>>>>>>>>>>>>>>>>>>>>>>>>>>>>>>>>>>>>>>>>>>FOR COMPONENT NO. 01<<<<<<<<<<<<<<<<<<<<<<<<<<<<<<<<<<<<<<<<<<<<<<<<<<<<<<<


                                            -------------------------------------------
                                                      TRANSPORT STEP NO.    2
                                            -------------------------------------------

 TOTAL ELAPSED TIME SINCE BEGINNING OF SIMULATION =   29.86402    D   
 .....................................................................

                     CUMMULATIVE MASS BUDGETS AT END OF TRANSPORT STEP    2, TIME STEP    1, STRESS PERIOD    1
                     ------------------------------------------------------------------------------------------

                                                             IN                           OUT
                                                      ----------------             ----------------
                               CONSTANT CONCENTRATION:    0.000000                    0.000000    
                                        CONSTANT HEAD:    0.000000                    0.000000    
                                                WELLS:   0.2535456E+09                0.000000    
                               1ST/0TH ORDER REACTION:    0.000000                    0.000000    
                                MASS STORAGE (SOLUTE):    11235.55                  -0.2265739E+09
                                MASS STORAGE (SORBED):    2135.207                  -0.5242374E+08
                            ---------------------------------------------------------------------------
                                              [TOTAL]:   0.2535589E+09 KG           -0.2789976E+09 KG  

                                                          NET (IN - OUT):  -0.2543869E+08
                                                   DISCREPANCY (PERCENT):   -9.553424    
     1 CALLS TO GCG PACKAGE FOR TRANSPORT TIME STEP   3 IN FLOW TIME STEP   1 STRESS PERIOD   1
     4 TOTAL ITERATIONS



 >>>>>>>>>>>>>>>>>>>>>>>>>>>>>>>>>>>>>>>>>>>>>>>>>>>>>>>FOR COMPONENT NO. 01<<<<<<<<<<<<<<<<<<<<<<<<<<<<<<<<<<<<<<<<<<<<<<<<<<<<<<<


                                            -------------------------------------------
                                                      TRANSPORT STEP NO.    3
                                            -------------------------------------------

 TOTAL ELAPSED TIME SINCE BEGINNING OF SIMULATION =   44.79604    D   
 .....................................................................

                     CUMMULATIVE MASS BUDGETS AT END OF TRANSPORT STEP    3, TIME STEP    1, STRESS PERIOD    1
                     ------------------------------------------------------------------------------------------

                                                             IN                           OUT
                                                      ----------------             ----------------
                               CONSTANT CONCENTRATION:    0.000000                    0.000000    
                                        CONSTANT HEAD:    0.000000                    0.000000    
                                                WELLS:   0.3803183E+09                0.000000    
                               1ST/0TH ORDER REACTION:    0.000000                    0.000000    
                                MASS STORAGE (SOLUTE):    73988.66                  -0.3269788E+09
                                MASS STORAGE (SORBED):    2135.814                  -0.7596570E+08
                            ---------------------------------------------------------------------------
                                              [TOTAL]:   0.3803945E+09 KG           -0.4029445E+09 KG  

                                                          NET (IN - OUT):  -0.2255005E+08
                                                   DISCREPANCY (PERCENT):   -5.757417    
     1 CALLS TO GCG PACKAGE FOR TRANSPORT TIME STEP   4 IN FLOW TIME STEP   1 STRESS PERIOD   1
     4 TOTAL ITERATIONS



 >>>>>>>>>>>>>>>>>>>>>>>>>>>>>>>>>>>>>>>>>>>>>>>>>>>>>>>FOR COMPONENT NO. 01<<<<<<<<<<<<<<<<<<<<<<<<<<<<<<<<<<<<<<<<<<<<<<<<<<<<<<<


                                            -------------------------------------------
                                                      TRANSPORT STEP NO.    4
                                            -------------------------------------------

 TOTAL ELAPSED TIME SINCE BEGINNING OF SIMULATION =   59.72805    D   
 .....................................................................

                     CUMMULATIVE MASS BUDGETS AT END OF TRANSPORT STEP    4, TIME STEP    1, STRESS PERIOD    1
                     ------------------------------------------------------------------------------------------

                                                             IN                           OUT
                                                      ----------------             ----------------
                               CONSTANT CONCENTRATION:    0.000000                    0.000000    
                                        CONSTANT HEAD:    0.000000                    0.000000    
                                                WELLS:   0.5070911E+09                0.000000    
                               1ST/0TH ORDER REACTION:    0.000000                    0.000000    
                                MASS STORAGE (SOLUTE):    209457.1                  -0.4276387E+09
                                MASS STORAGE (SORBED):    2135.844                  -0.9948170E+08
                            ---------------------------------------------------------------------------
                                              [TOTAL]:   0.5073027E+09 KG           -0.5271204E+09 KG  

                                                          NET (IN - OUT):  -0.1981766E+08
                                                   DISCREPANCY (PERCENT):   -3.831636    
     1 CALLS TO GCG PACKAGE FOR TRANSPORT TIME STEP   5 IN FLOW TIME STEP   1 STRESS PERIOD   1
     4 TOTAL ITERATIONS



 >>>>>>>>>>>>>>>>>>>>>>>>>>>>>>>>>>>>>>>>>>>>>>>>>>>>>>>FOR COMPONENT NO. 01<<<<<<<<<<<<<<<<<<<<<<<<<<<<<<<<<<<<<<<<<<<<<<<<<<<<<<<


                                            -------------------------------------------
                                                      TRANSPORT STEP NO.    5
                                            -------------------------------------------

 TOTAL ELAPSED TIME SINCE BEGINNING OF SIMULATION =   74.66006    D   
 .....................................................................

                     CUMMULATIVE MASS BUDGETS AT END OF TRANSPORT STEP    5, TIME STEP    1, STRESS PERIOD    1
                     ------------------------------------------------------------------------------------------

                                                             IN                           OUT
                                                      ----------------             ----------------
                               CONSTANT CONCENTRATION:    0.000000                    0.000000    
                                        CONSTANT HEAD:    0.000000                    0.000000    
                                                WELLS:   0.6338639E+09                0.000000    
                               1ST/0TH ORDER REACTION:    0.000000                    0.000000    
                                MASS STORAGE (SOLUTE):    386343.6                  -0.5284572E+09
                                MASS STORAGE (SORBED):    2135.845                  -0.1229633E+09
                            ---------------------------------------------------------------------------
                                              [TOTAL]:   0.6342524E+09 KG           -0.6514204E+09 KG  

                                                          NET (IN - OUT):  -0.1716806E+08
                                                   DISCREPANCY (PERCENT):   -2.670674    
     1 CALLS TO GCG PACKAGE FOR TRANSPORT TIME STEP   6 IN FLOW TIME STEP   1 STRESS PERIOD   1
     4 TOTAL ITERATIONS



 >>>>>>>>>>>>>>>>>>>>>>>>>>>>>>>>>>>>>>>>>>>>>>>>>>>>>>>FOR COMPONENT NO. 01<<<<<<<<<<<<<<<<<<<<<<<<<<<<<<<<<<<<<<<<<<<<<<<<<<<<<<<


                                            -------------------------------------------
                                                      TRANSPORT STEP NO.    6
                                            -------------------------------------------

 TOTAL ELAPSED TIME SINCE BEGINNING OF SIMULATION =   89.59207    D   
 .....................................................................

                     CUMMULATIVE MASS BUDGETS AT END OF TRANSPORT STEP    6, TIME STEP    1, STRESS PERIOD    1
                     ------------------------------------------------------------------------------------------

                                                             IN                           OUT
                                                      ----------------             ----------------
                               CONSTANT CONCENTRATION:    0.000000                    0.000000    
                                        CONSTANT HEAD:    0.000000                    0.000000    
                                                WELLS:   0.7606367E+09                0.000000    
                               1ST/0TH ORDER REACTION:    0.000000                    0.000000    
                                MASS STORAGE (SOLUTE):    563742.1                  -0.6293667E+09
                                MASS STORAGE (SORBED):    2135.845                  -0.1463986E+09
                            ---------------------------------------------------------------------------
                                              [TOTAL]:   0.7612025E+09 KG           -0.7757653E+09 KG  

                                                          NET (IN - OUT):  -0.1456282E+08
                                                   DISCREPANCY (PERCENT):   -1.895006    
     1 CALLS TO GCG PACKAGE FOR TRANSPORT TIME STEP   7 IN FLOW TIME STEP   1 STRESS PERIOD   1
     4 TOTAL ITERATIONS



 >>>>>>>>>>>>>>>>>>>>>>>>>>>>>>>>>>>>>>>>>>>>>>>>>>>>>>>FOR COMPONENT NO. 01<<<<<<<<<<<<<<<<<<<<<<<<<<<<<<<<<<<<<<<<<<<<<<<<<<<<<<<


                                            -------------------------------------------
                                                      TRANSPORT STEP NO.    7
                                            -------------------------------------------

 TOTAL ELAPSED TIME SINCE BEGINNING OF SIMULATION =   104.5241    D   
 .....................................................................

                     CUMMULATIVE MASS BUDGETS AT END OF TRANSPORT STEP    7, TIME STEP    1, STRESS PERIOD    1
                     ------------------------------------------------------------------------------------------

                                                             IN                           OUT
                                                      ----------------             ----------------
                               CONSTANT CONCENTRATION:    0.000000                    0.000000    
                                        CONSTANT HEAD:    0.000000                    0.000000    
                                                WELLS:   0.8874095E+09                0.000000    
                               1ST/0TH ORDER REACTION:    0.000000                    0.000000    
                                MASS STORAGE (SOLUTE):    703857.4                  -0.7303146E+09
                                MASS STORAGE (SORBED):    2135.846                  -0.1697828E+09
                            ---------------------------------------------------------------------------
                                              [TOTAL]:   0.8881155E+09 KG           -0.9000975E+09 KG  

                                                          NET (IN - OUT):  -0.1198202E+08
                                                   DISCREPANCY (PERCENT):   -1.340111    
     1 CALLS TO GCG PACKAGE FOR TRANSPORT TIME STEP   8 IN FLOW TIME STEP   1 STRESS PERIOD   1
     4 TOTAL ITERATIONS



 >>>>>>>>>>>>>>>>>>>>>>>>>>>>>>>>>>>>>>>>>>>>>>>>>>>>>>>FOR COMPONENT NO. 01<<<<<<<<<<<<<<<<<<<<<<<<<<<<<<<<<<<<<<<<<<<<<<<<<<<<<<<


                                            -------------------------------------------
                                                      TRANSPORT STEP NO.    8
                                            -------------------------------------------

 TOTAL ELAPSED TIME SINCE BEGINNING OF SIMULATION =   119.4561    D   
 .....................................................................

                     CUMMULATIVE MASS BUDGETS AT END OF TRANSPORT STEP    8, TIME STEP    1, STRESS PERIOD    1
                     ------------------------------------------------------------------------------------------

                                                             IN                           OUT
                                                      ----------------             ----------------
                               CONSTANT CONCENTRATION:    0.000000                    0.000000    
                                        CONSTANT HEAD:    0.000000                    0.000000    
                                                WELLS:   0.1014182E+10                0.000000    
                               1ST/0TH ORDER REACTION:    0.000000                    0.000000    
                                MASS STORAGE (SOLUTE):    825338.9                  -0.8313167E+09
                                MASS STORAGE (SORBED):    2146.080                  -0.1931076E+09
                            ---------------------------------------------------------------------------
                                              [TOTAL]:   0.1015010E+10 KG           -0.1024424E+10 KG  

                                                          NET (IN - OUT):   -9414528.    
                                                   DISCREPANCY (PERCENT):  -0.9232491    
     1 CALLS TO GCG PACKAGE FOR TRANSPORT TIME STEP   9 IN FLOW TIME STEP   1 STRESS PERIOD   1
     4 TOTAL ITERATIONS



 >>>>>>>>>>>>>>>>>>>>>>>>>>>>>>>>>>>>>>>>>>>>>>>>>>>>>>>FOR COMPONENT NO. 01<<<<<<<<<<<<<<<<<<<<<<<<<<<<<<<<<<<<<<<<<<<<<<<<<<<<<<<


                                            -------------------------------------------
                                                      TRANSPORT STEP NO.    9
                                            -------------------------------------------

 TOTAL ELAPSED TIME SINCE BEGINNING OF SIMULATION =   134.3881    D   
 .....................................................................

                     CUMMULATIVE MASS BUDGETS AT END OF TRANSPORT STEP    9, TIME STEP    1, STRESS PERIOD    1
                     ------------------------------------------------------------------------------------------

                                                             IN                           OUT
                                                      ----------------             ----------------
                               CONSTANT CONCENTRATION:    0.000000                    0.000000    
                                        CONSTANT HEAD:    0.000000                    0.000000    
                                                WELLS:   0.1140955E+10                0.000000    
                               1ST/0TH ORDER REACTION:    0.000000                    0.000000    
                                MASS STORAGE (SOLUTE):    956338.5                  -0.9323889E+09
                                MASS STORAGE (SORBED):    2146.148                  -0.2164360E+09
                            ---------------------------------------------------------------------------
                                              [TOTAL]:   0.1141913E+10 KG           -0.1148825E+10 KG  

                                                          NET (IN - OUT):   -6911488.    
                                                   DISCREPANCY (PERCENT):  -0.6034288    
     1 CALLS TO GCG PACKAGE FOR TRANSPORT TIME STEP  10 IN FLOW TIME STEP   1 STRESS PERIOD   1
     4 TOTAL ITERATIONS



 >>>>>>>>>>>>>>>>>>>>>>>>>>>>>>>>>>>>>>>>>>>>>>>>>>>>>>>FOR COMPONENT NO. 01<<<<<<<<<<<<<<<<<<<<<<<<<<<<<<<<<<<<<<<<<<<<<<<<<<<<<<<


                                            -------------------------------------------
                                                      TRANSPORT STEP NO.   10
                                            -------------------------------------------

 TOTAL ELAPSED TIME SINCE BEGINNING OF SIMULATION =   149.3201    D   
 .....................................................................

                     CUMMULATIVE MASS BUDGETS AT END OF TRANSPORT STEP   10, TIME STEP    1, STRESS PERIOD    1
                     ------------------------------------------------------------------------------------------

                                                             IN                           OUT
                                                      ----------------             ----------------
                               CONSTANT CONCENTRATION:    0.000000                    0.000000    
                                        CONSTANT HEAD:    0.000000                    0.000000    
                                                WELLS:   0.1267728E+10                0.000000    
                               1ST/0TH ORDER REACTION:    0.000000                    0.000000    
                                MASS STORAGE (SOLUTE):    1104286.                  -0.1033592E+10
                                MASS STORAGE (SORBED):    2147.240                  -0.2397334E+09
                            ---------------------------------------------------------------------------
                                              [TOTAL]:   0.1268834E+10 KG           -0.1273326E+10 KG  

                                                          NET (IN - OUT):   -4491520.    
                                                   DISCREPANCY (PERCENT):  -0.3533625    
     1 CALLS TO GCG PACKAGE FOR TRANSPORT TIME STEP  11 IN FLOW TIME STEP   1 STRESS PERIOD   1
     4 TOTAL ITERATIONS



 >>>>>>>>>>>>>>>>>>>>>>>>>>>>>>>>>>>>>>>>>>>>>>>>>>>>>>>FOR COMPONENT NO. 01<<<<<<<<<<<<<<<<<<<<<<<<<<<<<<<<<<<<<<<<<<<<<<<<<<<<<<<


                                            -------------------------------------------
                                                      TRANSPORT STEP NO.   11
                                            -------------------------------------------

 TOTAL ELAPSED TIME SINCE BEGINNING OF SIMULATION =   164.2521    D   
 .....................................................................

                     CUMMULATIVE MASS BUDGETS AT END OF TRANSPORT STEP   11, TIME STEP    1, STRESS PERIOD    1
                     ------------------------------------------------------------------------------------------

                                                             IN                           OUT
                                                      ----------------             ----------------
                               CONSTANT CONCENTRATION:    0.000000                    0.000000    
                                        CONSTANT HEAD:    0.000000                    0.000000    
                                                WELLS:   0.1394500E+10                0.000000    
                               1ST/0TH ORDER REACTION:    0.000000                    0.000000    
                                MASS STORAGE (SOLUTE):    1276484.                  -0.1134733E+10
                                MASS STORAGE (SORBED):    2150.276                  -0.2629900E+09
                            ---------------------------------------------------------------------------
                                              [TOTAL]:   0.1395779E+10 KG           -0.1397723E+10 KG  

                                                          NET (IN - OUT):   -1944064.    
                                                   DISCREPANCY (PERCENT):  -0.1391847    
     1 CALLS TO GCG PACKAGE FOR TRANSPORT TIME STEP  12 IN FLOW TIME STEP   1 STRESS PERIOD   1
     4 TOTAL ITERATIONS



 >>>>>>>>>>>>>>>>>>>>>>>>>>>>>>>>>>>>>>>>>>>>>>>>>>>>>>>FOR COMPONENT NO. 01<<<<<<<<<<<<<<<<<<<<<<<<<<<<<<<<<<<<<<<<<<<<<<<<<<<<<<<


                                            -------------------------------------------
                                                      TRANSPORT STEP NO.   12
                                            -------------------------------------------

 TOTAL ELAPSED TIME SINCE BEGINNING OF SIMULATION =   179.1841    D   
 .....................................................................

                     CUMMULATIVE MASS BUDGETS AT END OF TRANSPORT STEP   12, TIME STEP    1, STRESS PERIOD    1
                     ------------------------------------------------------------------------------------------

                                                             IN                           OUT
                                                      ----------------             ----------------
                               CONSTANT CONCENTRATION:    0.000000                    0.000000    
                                        CONSTANT HEAD:    0.000000                    0.000000    
                                                WELLS:   0.1521273E+10                0.000000    
                               1ST/0TH ORDER REACTION:    0.000000                    0.000000    
                                MASS STORAGE (SOLUTE):    1468995.                  -0.1235889E+10
                                MASS STORAGE (SORBED):    2158.796                  -0.2862465E+09
                            ---------------------------------------------------------------------------
                                              [TOTAL]:   0.1522744E+10 KG           -0.1522136E+10 KG  

                                                          NET (IN - OUT):    608640.0    
                                                   DISCREPANCY (PERCENT):   0.3997793E-01
     1 CALLS TO GCG PACKAGE FOR TRANSPORT TIME STEP  13 IN FLOW TIME STEP   1 STRESS PERIOD   1
     4 TOTAL ITERATIONS



 >>>>>>>>>>>>>>>>>>>>>>>>>>>>>>>>>>>>>>>>>>>>>>>>>>>>>>>FOR COMPONENT NO. 01<<<<<<<<<<<<<<<<<<<<<<<<<<<<<<<<<<<<<<<<<<<<<<<<<<<<<<<


                                            -------------------------------------------
                                                      TRANSPORT STEP NO.   13
                                            -------------------------------------------

 TOTAL ELAPSED TIME SINCE BEGINNING OF SIMULATION =   194.1161    D   
 .....................................................................

                     CUMMULATIVE MASS BUDGETS AT END OF TRANSPORT STEP   13, TIME STEP    1, STRESS PERIOD    1
                     ------------------------------------------------------------------------------------------

                                                             IN                           OUT
                                                      ----------------             ----------------
                               CONSTANT CONCENTRATION:    0.000000                    0.000000    
                                        CONSTANT HEAD:    0.000000                    0.000000    
                                                WELLS:   0.1648046E+10                0.000000    
                               1ST/0TH ORDER REACTION:    0.000000                    0.000000    
                                MASS STORAGE (SOLUTE):    1674580.                  -0.1337039E+10
                                MASS STORAGE (SORBED):    2158.796                  -0.3094687E+09
                            ---------------------------------------------------------------------------
                                              [TOTAL]:   0.1649723E+10 KG           -0.1646508E+10 KG  

                                                          NET (IN - OUT):    3214976.    
                                                   DISCREPANCY (PERCENT):   0.1950699    
     1 CALLS TO GCG PACKAGE FOR TRANSPORT TIME STEP  14 IN FLOW TIME STEP   1 STRESS PERIOD   1
     4 TOTAL ITERATIONS



 >>>>>>>>>>>>>>>>>>>>>>>>>>>>>>>>>>>>>>>>>>>>>>>>>>>>>>>FOR COMPONENT NO. 01<<<<<<<<<<<<<<<<<<<<<<<<<<<<<<<<<<<<<<<<<<<<<<<<<<<<<<<


                                            -------------------------------------------
                                                      TRANSPORT STEP NO.   14
                                            -------------------------------------------

 TOTAL ELAPSED TIME SINCE BEGINNING OF SIMULATION =   209.0481    D   
 .....................................................................

                     CUMMULATIVE MASS BUDGETS AT END OF TRANSPORT STEP   14, TIME STEP    1, STRESS PERIOD    1
                     ------------------------------------------------------------------------------------------

                                                             IN                           OUT
                                                      ----------------             ----------------
                               CONSTANT CONCENTRATION:    0.000000                    0.000000    
                                        CONSTANT HEAD:    0.000000                    0.000000    
                                                WELLS:   0.1774819E+10                0.000000    
                               1ST/0TH ORDER REACTION:    0.000000                    0.000000    
                                MASS STORAGE (SOLUTE):    1880370.                  -0.1438213E+10
                                MASS STORAGE (SORBED):    2158.796                  -0.3326766E+09
                            ---------------------------------------------------------------------------
                                              [TOTAL]:   0.1776701E+10 KG           -0.1770890E+10 KG  

                                                          NET (IN - OUT):    5811456.    
                                                   DISCREPANCY (PERCENT):   0.3276283    
     1 CALLS TO GCG PACKAGE FOR TRANSPORT TIME STEP  15 IN FLOW TIME STEP   1 STRESS PERIOD   1
     4 TOTAL ITERATIONS



 >>>>>>>>>>>>>>>>>>>>>>>>>>>>>>>>>>>>>>>>>>>>>>>>>>>>>>>FOR COMPONENT NO. 01<<<<<<<<<<<<<<<<<<<<<<<<<<<<<<<<<<<<<<<<<<<<<<<<<<<<<<<


                                            -------------------------------------------
                                                      TRANSPORT STEP NO.   15
                                            -------------------------------------------

 TOTAL ELAPSED TIME SINCE BEGINNING OF SIMULATION =   223.9801    D   
 .....................................................................

                     CUMMULATIVE MASS BUDGETS AT END OF TRANSPORT STEP   15, TIME STEP    1, STRESS PERIOD    1
                     ------------------------------------------------------------------------------------------

                                                             IN                           OUT
                                                      ----------------             ----------------
                               CONSTANT CONCENTRATION:    0.000000                    0.000000    
                                        CONSTANT HEAD:    0.000000                    0.000000    
                                                WELLS:   0.1901591E+10                0.000000    
                               1ST/0TH ORDER REACTION:    0.000000                    0.000000    
                                MASS STORAGE (SOLUTE):    2075478.                  -0.1539395E+10
                                MASS STORAGE (SORBED):    2197.139                  -0.3558649E+09
                            ---------------------------------------------------------------------------
                                              [TOTAL]:   0.1903669E+10 KG           -0.1895260E+10 KG  

                                                          NET (IN - OUT):    8408832.    
                                                   DISCREPANCY (PERCENT):   0.4426948    
     1 CALLS TO GCG PACKAGE FOR TRANSPORT TIME STEP  16 IN FLOW TIME STEP   1 STRESS PERIOD   1
     4 TOTAL ITERATIONS



 >>>>>>>>>>>>>>>>>>>>>>>>>>>>>>>>>>>>>>>>>>>>>>>>>>>>>>>FOR COMPONENT NO. 01<<<<<<<<<<<<<<<<<<<<<<<<<<<<<<<<<<<<<<<<<<<<<<<<<<<<<<<


                                            -------------------------------------------
                                                      TRANSPORT STEP NO.   16
                                            -------------------------------------------

 TOTAL ELAPSED TIME SINCE BEGINNING OF SIMULATION =   238.9122    D   
 .....................................................................

                     CUMMULATIVE MASS BUDGETS AT END OF TRANSPORT STEP   16, TIME STEP    1, STRESS PERIOD    1
                     ------------------------------------------------------------------------------------------

                                                             IN                           OUT
                                                      ----------------             ----------------
                               CONSTANT CONCENTRATION:    0.000000                    0.000000    
                                        CONSTANT HEAD:    0.000000                    0.000000    
                                                WELLS:   0.2028364E+10                0.000000    
                               1ST/0TH ORDER REACTION:    0.000000                    0.000000    
                                MASS STORAGE (SOLUTE):    2256326.                  -0.1640582E+10
                                MASS STORAGE (SORBED):    2270.018                  -0.3790323E+09
                            ---------------------------------------------------------------------------
                                              [TOTAL]:   0.2030623E+10 KG           -0.2019614E+10 KG  

                                                          NET (IN - OUT):   0.1100902E+08
                                                   DISCREPANCY (PERCENT):   0.5436237    
     1 CALLS TO GCG PACKAGE FOR TRANSPORT TIME STEP  17 IN FLOW TIME STEP   1 STRESS PERIOD   1
     4 TOTAL ITERATIONS



 >>>>>>>>>>>>>>>>>>>>>>>>>>>>>>>>>>>>>>>>>>>>>>>>>>>>>>>FOR COMPONENT NO. 01<<<<<<<<<<<<<<<<<<<<<<<<<<<<<<<<<<<<<<<<<<<<<<<<<<<<<<<


                                            -------------------------------------------
                                                      TRANSPORT STEP NO.   17
                                            -------------------------------------------

 TOTAL ELAPSED TIME SINCE BEGINNING OF SIMULATION =   253.8442    D   
 .....................................................................

                     CUMMULATIVE MASS BUDGETS AT END OF TRANSPORT STEP   17, TIME STEP    1, STRESS PERIOD    1
                     ------------------------------------------------------------------------------------------

                                                             IN                           OUT
                                                      ----------------             ----------------
                               CONSTANT CONCENTRATION:    0.000000                    0.000000    
                                        CONSTANT HEAD:    0.000000                    0.000000    
                                                WELLS:   0.2155137E+10                0.000000    
                               1ST/0TH ORDER REACTION:    0.000000                    0.000000    
                                MASS STORAGE (SOLUTE):    2420362.                  -0.1741767E+10
                                MASS STORAGE (SORBED):    2349.689                  -0.4021805E+09
                            ---------------------------------------------------------------------------
                                              [TOTAL]:   0.2157560E+10 KG           -0.2143947E+10 KG  

                                                          NET (IN - OUT):   0.1361254E+08
                                                   DISCREPANCY (PERCENT):   0.6329197    
     1 CALLS TO GCG PACKAGE FOR TRANSPORT TIME STEP  18 IN FLOW TIME STEP   1 STRESS PERIOD   1
     4 TOTAL ITERATIONS



 >>>>>>>>>>>>>>>>>>>>>>>>>>>>>>>>>>>>>>>>>>>>>>>>>>>>>>>FOR COMPONENT NO. 01<<<<<<<<<<<<<<<<<<<<<<<<<<<<<<<<<<<<<<<<<<<<<<<<<<<<<<<


                                            -------------------------------------------
                                                      TRANSPORT STEP NO.   18
                                            -------------------------------------------

 TOTAL ELAPSED TIME SINCE BEGINNING OF SIMULATION =   268.7762    D   
 .....................................................................

                     CUMMULATIVE MASS BUDGETS AT END OF TRANSPORT STEP   18, TIME STEP    1, STRESS PERIOD    1
                     ------------------------------------------------------------------------------------------

                                                             IN                           OUT
                                                      ----------------             ----------------
                               CONSTANT CONCENTRATION:    0.000000                    0.000000    
                                        CONSTANT HEAD:    0.000000                    0.000000    
                                                WELLS:   0.2281910E+10                0.000000    
                               1ST/0TH ORDER REACTION:    0.000000                    0.000000    
                                MASS STORAGE (SOLUTE):    2565436.                  -0.1842948E+10
                                MASS STORAGE (SORBED):    2454.060                  -0.4253097E+09
                            ---------------------------------------------------------------------------
                                              [TOTAL]:   0.2284478E+10 KG           -0.2268258E+10 KG  

                                                          NET (IN - OUT):   0.1621990E+08
                                                   DISCREPANCY (PERCENT):   0.7125344    
     1 CALLS TO GCG PACKAGE FOR TRANSPORT TIME STEP  19 IN FLOW TIME STEP   1 STRESS PERIOD   1
     4 TOTAL ITERATIONS



 >>>>>>>>>>>>>>>>>>>>>>>>>>>>>>>>>>>>>>>>>>>>>>>>>>>>>>>FOR COMPONENT NO. 01<<<<<<<<<<<<<<<<<<<<<<<<<<<<<<<<<<<<<<<<<<<<<<<<<<<<<<<


                                            -------------------------------------------
                                                      TRANSPORT STEP NO.   19
                                            -------------------------------------------

 TOTAL ELAPSED TIME SINCE BEGINNING OF SIMULATION =   283.7082    D   
 .....................................................................

                     CUMMULATIVE MASS BUDGETS AT END OF TRANSPORT STEP   19, TIME STEP    1, STRESS PERIOD    1
                     ------------------------------------------------------------------------------------------

                                                             IN                           OUT
                                                      ----------------             ----------------
                               CONSTANT CONCENTRATION:    0.000000                    0.000000    
                                        CONSTANT HEAD:    0.000000                    0.000000    
                                                WELLS:   0.2408682E+10                0.000000    
                               1ST/0TH ORDER REACTION:    0.000000                    0.000000    
                                MASS STORAGE (SOLUTE):    2697465.                  -0.1944131E+10
                                MASS STORAGE (SORBED):    2466.174                  -0.4484213E+09
                            ---------------------------------------------------------------------------
                                              [TOTAL]:   0.2411383E+10 KG           -0.2392552E+10 KG  

                                                          NET (IN - OUT):   0.1883059E+08
                                                   DISCREPANCY (PERCENT):   0.7839655    
     1 CALLS TO GCG PACKAGE FOR TRANSPORT TIME STEP  20 IN FLOW TIME STEP   1 STRESS PERIOD   1
     4 TOTAL ITERATIONS



 >>>>>>>>>>>>>>>>>>>>>>>>>>>>>>>>>>>>>>>>>>>>>>>>>>>>>>>FOR COMPONENT NO. 01<<<<<<<<<<<<<<<<<<<<<<<<<<<<<<<<<<<<<<<<<<<<<<<<<<<<<<<


                                            -------------------------------------------
                                                      TRANSPORT STEP NO.   20
                                            -------------------------------------------

 TOTAL ELAPSED TIME SINCE BEGINNING OF SIMULATION =   298.6402    D   
 .....................................................................

                     CUMMULATIVE MASS BUDGETS AT END OF TRANSPORT STEP   20, TIME STEP    1, STRESS PERIOD    1
                     ------------------------------------------------------------------------------------------

                                                             IN                           OUT
                                                      ----------------             ----------------
                               CONSTANT CONCENTRATION:    0.000000                    0.000000    
                                        CONSTANT HEAD:    0.000000                    0.000000    
                                                WELLS:   0.2535455E+10                0.000000    
                               1ST/0TH ORDER REACTION:    0.000000                    0.000000    
                                MASS STORAGE (SOLUTE):    2823234.                  -0.2045327E+10
                                MASS STORAGE (SORBED):    2474.225                  -0.4715076E+09
                            ---------------------------------------------------------------------------
                                              [TOTAL]:   0.2538281E+10 KG           -0.2516835E+10 KG  

                                                          NET (IN - OUT):   0.2144614E+08
                                                   DISCREPANCY (PERCENT):   0.8484927    
     1 CALLS TO GCG PACKAGE FOR TRANSPORT TIME STEP  21 IN FLOW TIME STEP   1 STRESS PERIOD   1
     4 TOTAL ITERATIONS



 >>>>>>>>>>>>>>>>>>>>>>>>>>>>>>>>>>>>>>>>>>>>>>>>>>>>>>>FOR COMPONENT NO. 01<<<<<<<<<<<<<<<<<<<<<<<<<<<<<<<<<<<<<<<<<<<<<<<<<<<<<<<


                                            -------------------------------------------
                                                      TRANSPORT STEP NO.   21
                                            -------------------------------------------

 TOTAL ELAPSED TIME SINCE BEGINNING OF SIMULATION =   313.5722    D   
 .....................................................................

                     CUMMULATIVE MASS BUDGETS AT END OF TRANSPORT STEP   21, TIME STEP    1, STRESS PERIOD    1
                     ------------------------------------------------------------------------------------------

                                                             IN                           OUT
                                                      ----------------             ----------------
                               CONSTANT CONCENTRATION:    0.000000                    0.000000    
                                        CONSTANT HEAD:    0.000000                    0.000000    
                                                WELLS:   0.2662228E+10                0.000000    
                               1ST/0TH ORDER REACTION:    0.000000                    0.000000    
                                MASS STORAGE (SOLUTE):    2938597.                  -0.2146535E+10
                                MASS STORAGE (SORBED):    2494.102                  -0.4945907E+09
                            ---------------------------------------------------------------------------
                                              [TOTAL]:   0.2665169E+10 KG           -0.2641125E+10 KG  

                                                          NET (IN - OUT):   0.2404403E+08
                                                   DISCREPANCY (PERCENT):   0.9062457    
     1 CALLS TO GCG PACKAGE FOR TRANSPORT TIME STEP  22 IN FLOW TIME STEP   1 STRESS PERIOD   1
     4 TOTAL ITERATIONS



 >>>>>>>>>>>>>>>>>>>>>>>>>>>>>>>>>>>>>>>>>>>>>>>>>>>>>>>FOR COMPONENT NO. 01<<<<<<<<<<<<<<<<<<<<<<<<<<<<<<<<<<<<<<<<<<<<<<<<<<<<<<<


                                            -------------------------------------------
                                                      TRANSPORT STEP NO.   22
                                            -------------------------------------------

 TOTAL ELAPSED TIME SINCE BEGINNING OF SIMULATION =   328.5042    D   
 .....................................................................

                     CUMMULATIVE MASS BUDGETS AT END OF TRANSPORT STEP   22, TIME STEP    1, STRESS PERIOD    1
                     ------------------------------------------------------------------------------------------

                                                             IN                           OUT
                                                      ----------------             ----------------
                               CONSTANT CONCENTRATION:    0.000000                    0.000000    
                                        CONSTANT HEAD:    0.000000                    0.000000    
                                                WELLS:   0.2789001E+10                0.000000    
                               1ST/0TH ORDER REACTION:    0.000000                    0.000000    
                                MASS STORAGE (SOLUTE):    3042936.                  -0.2247772E+10
                                MASS STORAGE (SORBED):    2494.196                  -0.5176576E+09
                            ---------------------------------------------------------------------------
                                              [TOTAL]:   0.2792046E+10 KG           -0.2765430E+10 KG  

                                                          NET (IN - OUT):   0.2661606E+08
                                                   DISCREPANCY (PERCENT):   0.9578471    
     1 CALLS TO GCG PACKAGE FOR TRANSPORT TIME STEP  23 IN FLOW TIME STEP   1 STRESS PERIOD   1
     4 TOTAL ITERATIONS



 >>>>>>>>>>>>>>>>>>>>>>>>>>>>>>>>>>>>>>>>>>>>>>>>>>>>>>>FOR COMPONENT NO. 01<<<<<<<<<<<<<<<<<<<<<<<<<<<<<<<<<<<<<<<<<<<<<<<<<<<<<<<


                                            -------------------------------------------
                                                      TRANSPORT STEP NO.   23
                                            -------------------------------------------

 TOTAL ELAPSED TIME SINCE BEGINNING OF SIMULATION =   343.4362    D   
 .....................................................................

                     CUMMULATIVE MASS BUDGETS AT END OF TRANSPORT STEP   23, TIME STEP    1, STRESS PERIOD    1
                     ------------------------------------------------------------------------------------------

                                                             IN                           OUT
                                                      ----------------             ----------------
                               CONSTANT CONCENTRATION:    0.000000                    0.000000    
                                        CONSTANT HEAD:    0.000000                    0.000000    
                                                WELLS:   0.2915773E+10                0.000000    
                               1ST/0TH ORDER REACTION:    0.000000                    0.000000    
                                MASS STORAGE (SOLUTE):    3143416.                  -0.2348985E+10
                                MASS STORAGE (SORBED):    2496.064                  -0.5407073E+09
                            ---------------------------------------------------------------------------
                                              [TOTAL]:   0.2918919E+10 KG           -0.2889692E+10 KG  

                                                          NET (IN - OUT):   0.2922752E+08
                                                   DISCREPANCY (PERCENT):    1.006351    
     1 CALLS TO GCG PACKAGE FOR TRANSPORT TIME STEP  24 IN FLOW TIME STEP   1 STRESS PERIOD   1
     4 TOTAL ITERATIONS



 >>>>>>>>>>>>>>>>>>>>>>>>>>>>>>>>>>>>>>>>>>>>>>>>>>>>>>>FOR COMPONENT NO. 01<<<<<<<<<<<<<<<<<<<<<<<<<<<<<<<<<<<<<<<<<<<<<<<<<<<<<<<


                                            -------------------------------------------
                                                      TRANSPORT STEP NO.   24
                                            -------------------------------------------

 TOTAL ELAPSED TIME SINCE BEGINNING OF SIMULATION =   358.3682    D   
 .....................................................................

                     CUMMULATIVE MASS BUDGETS AT END OF TRANSPORT STEP   24, TIME STEP    1, STRESS PERIOD    1
                     ------------------------------------------------------------------------------------------

                                                             IN                           OUT
                                                      ----------------             ----------------
                               CONSTANT CONCENTRATION:    0.000000                    0.000000    
                                        CONSTANT HEAD:    0.000000                    0.000000    
                                                WELLS:   0.3042546E+10                0.000000    
                               1ST/0TH ORDER REACTION:    0.000000                    0.000000    
                                MASS STORAGE (SOLUTE):    3240587.                  -0.2450223E+10
                                MASS STORAGE (SORBED):    2504.850                  -0.5637562E+09
                            ---------------------------------------------------------------------------
                                              [TOTAL]:   0.3045789E+10 KG           -0.3013979E+10 KG  

                                                          NET (IN - OUT):   0.3181030E+08
                                                   DISCREPANCY (PERCENT):    1.049885    
     1 CALLS TO GCG PACKAGE FOR TRANSPORT TIME STEP  25 IN FLOW TIME STEP   1 STRESS PERIOD   1
     4 TOTAL ITERATIONS



 >>>>>>>>>>>>>>>>>>>>>>>>>>>>>>>>>>>>>>>>>>>>>>>>>>>>>>>FOR COMPONENT NO. 01<<<<<<<<<<<<<<<<<<<<<<<<<<<<<<<<<<<<<<<<<<<<<<<<<<<<<<<


                                            -------------------------------------------
                                                      TRANSPORT STEP NO.   25
                                            -------------------------------------------

 TOTAL ELAPSED TIME SINCE BEGINNING OF SIMULATION =   373.3002    D   
 .....................................................................

                     CUMMULATIVE MASS BUDGETS AT END OF TRANSPORT STEP   25, TIME STEP    1, STRESS PERIOD    1
                     ------------------------------------------------------------------------------------------

                                                             IN                           OUT
                                                      ----------------             ----------------
                               CONSTANT CONCENTRATION:    0.000000                    0.000000    
                                        CONSTANT HEAD:    0.000000                    0.000000    
                                                WELLS:   0.3169319E+10                0.000000    
                               1ST/0TH ORDER REACTION:    0.000000                    0.000000    
                                MASS STORAGE (SOLUTE):    3337753.                  -0.2551425E+10
                                MASS STORAGE (SORBED):    2561.367                  -0.5867800E+09
                            ---------------------------------------------------------------------------
                                              [TOTAL]:   0.3172659E+10 KG           -0.3138205E+10 KG  

                                                          NET (IN - OUT):   0.3445453E+08
                                                   DISCREPANCY (PERCENT):    1.091912    
     1 CALLS TO GCG PACKAGE FOR TRANSPORT TIME STEP  26 IN FLOW TIME STEP   1 STRESS PERIOD   1
     4 TOTAL ITERATIONS



 >>>>>>>>>>>>>>>>>>>>>>>>>>>>>>>>>>>>>>>>>>>>>>>>>>>>>>>FOR COMPONENT NO. 01<<<<<<<<<<<<<<<<<<<<<<<<<<<<<<<<<<<<<<<<<<<<<<<<<<<<<<<


                                            -------------------------------------------
                                                      TRANSPORT STEP NO.   26
                                            -------------------------------------------

 TOTAL ELAPSED TIME SINCE BEGINNING OF SIMULATION =   388.2322    D   
 .....................................................................

                     CUMMULATIVE MASS BUDGETS AT END OF TRANSPORT STEP   26, TIME STEP    1, STRESS PERIOD    1
                     ------------------------------------------------------------------------------------------

                                                             IN                           OUT
                                                      ----------------             ----------------
                               CONSTANT CONCENTRATION:    0.000000                    0.000000    
                                        CONSTANT HEAD:    0.000000                    0.000000    
                                                WELLS:   0.3296092E+10                0.000000    
                               1ST/0TH ORDER REACTION:    0.000000                    0.000000    
                                MASS STORAGE (SOLUTE):    3434863.                  -0.2652628E+10
                                MASS STORAGE (SORBED):    2704.481                  -0.6098219E+09
                            ---------------------------------------------------------------------------
                                              [TOTAL]:   0.3299529E+10 KG           -0.3262450E+10 KG  

                                                          NET (IN - OUT):   0.3707904E+08
                                                   DISCREPANCY (PERCENT):    1.130118    
     1 CALLS TO GCG PACKAGE FOR TRANSPORT TIME STEP  27 IN FLOW TIME STEP   1 STRESS PERIOD   1
     4 TOTAL ITERATIONS



 >>>>>>>>>>>>>>>>>>>>>>>>>>>>>>>>>>>>>>>>>>>>>>>>>>>>>>>FOR COMPONENT NO. 01<<<<<<<<<<<<<<<<<<<<<<<<<<<<<<<<<<<<<<<<<<<<<<<<<<<<<<<


                                            -------------------------------------------
                                                      TRANSPORT STEP NO.   27
                                            -------------------------------------------

 TOTAL ELAPSED TIME SINCE BEGINNING OF SIMULATION =   403.1642    D   
 .....................................................................

                     CUMMULATIVE MASS BUDGETS AT END OF TRANSPORT STEP   27, TIME STEP    1, STRESS PERIOD    1
                     ------------------------------------------------------------------------------------------

                                                             IN                           OUT
                                                      ----------------             ----------------
                               CONSTANT CONCENTRATION:    0.000000                    0.000000    
                                        CONSTANT HEAD:    0.000000                    0.000000    
                                                WELLS:   0.3422864E+10                0.000000    
                               1ST/0TH ORDER REACTION:    0.000000                    0.000000    
                                MASS STORAGE (SOLUTE):    3527058.                  -0.2753879E+10
                                MASS STORAGE (SORBED):    2913.109                  -0.6328719E+09
                            ---------------------------------------------------------------------------
                                              [TOTAL]:   0.3426394E+10 KG           -0.3386751E+10 KG  

                                                          NET (IN - OUT):   0.3964314E+08
                                                   DISCREPANCY (PERCENT):    1.163725    
     1 CALLS TO GCG PACKAGE FOR TRANSPORT TIME STEP  28 IN FLOW TIME STEP   1 STRESS PERIOD   1
     4 TOTAL ITERATIONS



 >>>>>>>>>>>>>>>>>>>>>>>>>>>>>>>>>>>>>>>>>>>>>>>>>>>>>>>FOR COMPONENT NO. 01<<<<<<<<<<<<<<<<<<<<<<<<<<<<<<<<<<<<<<<<<<<<<<<<<<<<<<<


                                            -------------------------------------------
                                                      TRANSPORT STEP NO.   28
                                            -------------------------------------------

 TOTAL ELAPSED TIME SINCE BEGINNING OF SIMULATION =   418.0963    D   
 .....................................................................

                     CUMMULATIVE MASS BUDGETS AT END OF TRANSPORT STEP   28, TIME STEP    1, STRESS PERIOD    1
                     ------------------------------------------------------------------------------------------

                                                             IN                           OUT
                                                      ----------------             ----------------
                               CONSTANT CONCENTRATION:    0.000000                    0.000000    
                                        CONSTANT HEAD:    0.000000                    0.000000    
                                                WELLS:   0.3549637E+10                0.000000    
                               1ST/0TH ORDER REACTION:    0.000000                    0.000000    
                                MASS STORAGE (SOLUTE):    3618420.                  -0.2855066E+10
                                MASS STORAGE (SORBED):    2914.213                  -0.6559041E+09
                            ---------------------------------------------------------------------------
                                              [TOTAL]:   0.3553258E+10 KG           -0.3510970E+10 KG  

                                                          NET (IN - OUT):   0.4228838E+08
                                                   DISCREPANCY (PERCENT):    1.197254    
     1 CALLS TO GCG PACKAGE FOR TRANSPORT TIME STEP  29 IN FLOW TIME STEP   1 STRESS PERIOD   1
     4 TOTAL ITERATIONS



 >>>>>>>>>>>>>>>>>>>>>>>>>>>>>>>>>>>>>>>>>>>>>>>>>>>>>>>FOR COMPONENT NO. 01<<<<<<<<<<<<<<<<<<<<<<<<<<<<<<<<<<<<<<<<<<<<<<<<<<<<<<<


                                            -------------------------------------------
                                                      TRANSPORT STEP NO.   29
                                            -------------------------------------------

 TOTAL ELAPSED TIME SINCE BEGINNING OF SIMULATION =   433.0283    D   
 .....................................................................

                     CUMMULATIVE MASS BUDGETS AT END OF TRANSPORT STEP   29, TIME STEP    1, STRESS PERIOD    1
                     ------------------------------------------------------------------------------------------

                                                             IN                           OUT
                                                      ----------------             ----------------
                               CONSTANT CONCENTRATION:    0.000000                    0.000000    
                                        CONSTANT HEAD:    0.000000                    0.000000    
                                                WELLS:   0.3676410E+10                0.000000    
                               1ST/0TH ORDER REACTION:    0.000000                    0.000000    
                                MASS STORAGE (SOLUTE):    3705474.                  -0.2956310E+10
                                MASS STORAGE (SORBED):    2916.431                  -0.6789455E+09
                            ---------------------------------------------------------------------------
                                              [TOTAL]:   0.3680118E+10 KG           -0.3635256E+10 KG  

                                                          NET (IN - OUT):   0.4486246E+08
                                                   DISCREPANCY (PERCENT):    1.226526    
     1 CALLS TO GCG PACKAGE FOR TRANSPORT TIME STEP  30 IN FLOW TIME STEP   1 STRESS PERIOD   1
     4 TOTAL ITERATIONS



 >>>>>>>>>>>>>>>>>>>>>>>>>>>>>>>>>>>>>>>>>>>>>>>>>>>>>>>FOR COMPONENT NO. 01<<<<<<<<<<<<<<<<<<<<<<<<<<<<<<<<<<<<<<<<<<<<<<<<<<<<<<<


                                            -------------------------------------------
                                                      TRANSPORT STEP NO.   30
                                            -------------------------------------------

 TOTAL ELAPSED TIME SINCE BEGINNING OF SIMULATION =   447.9603    D   
 .....................................................................

                     CUMMULATIVE MASS BUDGETS AT END OF TRANSPORT STEP   30, TIME STEP    1, STRESS PERIOD    1
                     ------------------------------------------------------------------------------------------

                                                             IN                           OUT
                                                      ----------------             ----------------
                               CONSTANT CONCENTRATION:    0.000000                    0.000000    
                                        CONSTANT HEAD:    0.000000                    0.000000    
                                                WELLS:   0.3803183E+10                0.000000    
                               1ST/0TH ORDER REACTION:    0.000000                    0.000000    
                                MASS STORAGE (SOLUTE):    3784754.                  -0.3057545E+10
                                MASS STORAGE (SORBED):    2920.304                  -0.7019953E+09
                            ---------------------------------------------------------------------------
                                              [TOTAL]:   0.3806970E+10 KG           -0.3759540E+10 KG  

                                                          NET (IN - OUT):   0.4743014E+08
                                                   DISCREPANCY (PERCENT):    1.253686    
     1 CALLS TO GCG PACKAGE FOR TRANSPORT TIME STEP  31 IN FLOW TIME STEP   1 STRESS PERIOD   1
     4 TOTAL ITERATIONS



 >>>>>>>>>>>>>>>>>>>>>>>>>>>>>>>>>>>>>>>>>>>>>>>>>>>>>>>FOR COMPONENT NO. 01<<<<<<<<<<<<<<<<<<<<<<<<<<<<<<<<<<<<<<<<<<<<<<<<<<<<<<<


                                            -------------------------------------------
                                                      TRANSPORT STEP NO.   31
                                            -------------------------------------------

 TOTAL ELAPSED TIME SINCE BEGINNING OF SIMULATION =   462.8923    D   
 .....................................................................

                     CUMMULATIVE MASS BUDGETS AT END OF TRANSPORT STEP   31, TIME STEP    1, STRESS PERIOD    1
                     ------------------------------------------------------------------------------------------

                                                             IN                           OUT
                                                      ----------------             ----------------
                               CONSTANT CONCENTRATION:    0.000000                    0.000000    
                                        CONSTANT HEAD:    0.000000                    0.000000    
                                                WELLS:   0.3929955E+10                0.000000    
                               1ST/0TH ORDER REACTION:    0.000000                    0.000000    
                                MASS STORAGE (SOLUTE):    3856565.                  -0.3158721E+10
                                MASS STORAGE (SORBED):    2932.397                  -0.7250383E+09
                            ---------------------------------------------------------------------------
                                              [TOTAL]:   0.3933815E+10 KG           -0.3883759E+10 KG  

                                                          NET (IN - OUT):   0.5005594E+08
                                                   DISCREPANCY (PERCENT):    1.280600    
     1 CALLS TO GCG PACKAGE FOR TRANSPORT TIME STEP  32 IN FLOW TIME STEP   1 STRESS PERIOD   1
     4 TOTAL ITERATIONS



 >>>>>>>>>>>>>>>>>>>>>>>>>>>>>>>>>>>>>>>>>>>>>>>>>>>>>>>FOR COMPONENT NO. 01<<<<<<<<<<<<<<<<<<<<<<<<<<<<<<<<<<<<<<<<<<<<<<<<<<<<<<<


                                            -------------------------------------------
                                                      TRANSPORT STEP NO.   32
                                            -------------------------------------------

 TOTAL ELAPSED TIME SINCE BEGINNING OF SIMULATION =   477.8243    D   
 .....................................................................

                     CUMMULATIVE MASS BUDGETS AT END OF TRANSPORT STEP   32, TIME STEP    1, STRESS PERIOD    1
                     ------------------------------------------------------------------------------------------

                                                             IN                           OUT
                                                      ----------------             ----------------
                               CONSTANT CONCENTRATION:    0.000000                    0.000000    
                                        CONSTANT HEAD:    0.000000                    0.000000    
                                                WELLS:   0.4056728E+10                0.000000    
                               1ST/0TH ORDER REACTION:    0.000000                    0.000000    
                                MASS STORAGE (SOLUTE):    3921830.                  -0.3259910E+10
                                MASS STORAGE (SORBED):    2941.820                  -0.7480746E+09
                            ---------------------------------------------------------------------------
                                              [TOTAL]:   0.4060653E+10 KG           -0.4007985E+10 KG  

                                                          NET (IN - OUT):   0.5266790E+08
                                                   DISCREPANCY (PERCENT):    1.305497    
     1 CALLS TO GCG PACKAGE FOR TRANSPORT TIME STEP  33 IN FLOW TIME STEP   1 STRESS PERIOD   1
     4 TOTAL ITERATIONS



 >>>>>>>>>>>>>>>>>>>>>>>>>>>>>>>>>>>>>>>>>>>>>>>>>>>>>>>FOR COMPONENT NO. 01<<<<<<<<<<<<<<<<<<<<<<<<<<<<<<<<<<<<<<<<<<<<<<<<<<<<<<<


                                            -------------------------------------------
                                                      TRANSPORT STEP NO.   33
                                            -------------------------------------------

 TOTAL ELAPSED TIME SINCE BEGINNING OF SIMULATION =   492.7563    D   
 .....................................................................

                     CUMMULATIVE MASS BUDGETS AT END OF TRANSPORT STEP   33, TIME STEP    1, STRESS PERIOD    1
                     ------------------------------------------------------------------------------------------

                                                             IN                           OUT
                                                      ----------------             ----------------
                               CONSTANT CONCENTRATION:    0.000000                    0.000000    
                                        CONSTANT HEAD:    0.000000                    0.000000    
                                                WELLS:   0.4183501E+10                0.000000    
                               1ST/0TH ORDER REACTION:    0.000000                    0.000000    
                                MASS STORAGE (SOLUTE):    3981773.                  -0.3361075E+10
                                MASS STORAGE (SORBED):    2962.680                  -0.7710931E+09
                            ---------------------------------------------------------------------------
                                              [TOTAL]:   0.4187486E+10 KG           -0.4132168E+10 KG  

                                                          NET (IN - OUT):   0.5531725E+08
                                                   DISCREPANCY (PERCENT):    1.329797    
[...]
                                                WELLS:   0.3445597E+11                0.000000    
                               1ST/0TH ORDER REACTION:    0.000000                    0.000000    
                                MASS STORAGE (SOLUTE):   0.3272187E+11              -0.5733981E+11
                                MASS STORAGE (SORBED):   0.7298917E+10              -0.1354683E+11
                            ---------------------------------------------------------------------------
                                              [TOTAL]:   0.7447675E+11 KG           -0.7378068E+11 KG  

                                                          NET (IN - OUT):   0.6960660E+09
                                                   DISCREPANCY (PERCENT):   0.9389964    


                                   ++++++++++++++++++++++++++++++++++++++++++++++++++++++++++++++
                                                       STRESS PERIOD NO.  049
                                   ++++++++++++++++++++++++++++++++++++++++++++++++++++++++++++++


 LENGTH OF CURRENT STRESS PERIOD =   182.5000    
 NUMBER OF TIME STEPS FOR CURRENT STRESS PERIOD =    1
 TIME STEP MULTIPLIER USED IN FLOW SOLUTION =   1.000000    

 ***Type of Transport Simulation is TRANSIENT

 USER-SPECIFIED TRANSPORT STEPSIZE =   0.000000    D   
 MAXIMUM NUMBER OF TRANSPORT STEPS ALLOWED  IN ONE FLOW TIME STEP =     50000
 MULTIPLIER FOR SUCCESSIVE TRANSPORT STEPS  [USED IN IMPLICIT SCHEMES] =     1.000
 MAXIMUM TRANSPORT STEP SIZE  [USED IN IMPLICIT SCHEMES] =   0.000000    D   

 POINT SINKS/SOURCES OF SPECIFIED CONCENTRATION REUSED FROM LAST STRESS PERIOD


                                          ================================================
                                                         TIME STEP NO.  001
                                          ================================================

 FROM TIME =   14235.     TO    14418.    


                    "THKSAT          " FLOW TERMS FOR TIME STEP  1, STRESS PERIOD 49 READ UNFORMATTED ON UNIT 10
                    --------------------------------------------------------------------------------------------

                    "QXX             " FLOW TERMS FOR TIME STEP  1, STRESS PERIOD 49 READ UNFORMATTED ON UNIT 10
                    --------------------------------------------------------------------------------------------

                    "QYY             " FLOW TERMS FOR TIME STEP  1, STRESS PERIOD 49 READ UNFORMATTED ON UNIT 10
                    --------------------------------------------------------------------------------------------

 MAXIMUM STEPSIZE DURING WHICH ANY PARTICLE CANNOT MOVE MORE THAN ONE CELL
 =  155.0    (WHEN MIN. R.F.=1)  AT K=   1, I=  20, J=  39

 MAXIMUM STEPSIZE WHICH MEETS STABILITY CRITERION OF THE ADVECTION TERM
 (FOR PURE FINITE-DIFFERENCE OPTION, MIXELM=0) 
 =  146.2    (WHEN MIN. R.F.=1)  AT K=   1, I=  25, J=  54

                    "CNH             " FLOW TERMS FOR TIME STEP  1, STRESS PERIOD 49 READ UNFORMATTED ON UNIT 10
                    --------------------------------------------------------------------------------------------

                    "WEL             " FLOW TERMS FOR TIME STEP  1, STRESS PERIOD 49 READ UNFORMATTED ON UNIT 10
                    --------------------------------------------------------------------------------------------


 TOTAL NUMBER OF POINT SOURCES/SINKS PRESENT IN THE FLOW MODEL =    83

 MAXIMUM STEPSIZE WHICH MEETS STABILITY CRITERION OF THE SINK & SOURCE TERM
 =  182.4    (WHEN MIN. R.F.=1)  AT K=   1, I=  16, J=   1

 MAXIMUM STEPSIZE WHICH MEETS STABILITY CRITERION OF THE DISPERSION TERM
 =  53.25    (WHEN MIN. R.F.=1)  AT K=   1, I=  20, J=  38


     1 CALLS TO GCG PACKAGE FOR TRANSPORT TIME STEP   1 IN FLOW TIME STEP   1 STRESS PERIOD  49
     4 TOTAL ITERATIONS



 >>>>>>>>>>>>>>>>>>>>>>>>>>>>>>>>>>>>>>>>>>>>>>>>>>>>>>>FOR COMPONENT NO. 01<<<<<<<<<<<<<<<<<<<<<<<<<<<<<<<<<<<<<<<<<<<<<<<<<<<<<<<


                                            -------------------------------------------
                                                      TRANSPORT STEP NO.    1
                                            -------------------------------------------

 TOTAL ELAPSED TIME SINCE BEGINNING OF SIMULATION =   14308.09    D   
 .....................................................................

                     CUMMULATIVE MASS BUDGETS AT END OF TRANSPORT STEP    1, TIME STEP    1, STRESS PERIOD   49
                     ------------------------------------------------------------------------------------------

                                                             IN                           OUT
                                                      ----------------             ----------------
                               CONSTANT CONCENTRATION:    0.000000                    0.000000    
                                        CONSTANT HEAD:    0.000000                  -0.3010777E+10
                                                WELLS:   0.3445597E+11                0.000000    
                               1ST/0TH ORDER REACTION:    0.000000                    0.000000    
                                MASS STORAGE (SOLUTE):   0.3294166E+11              -0.5746454E+11
                                MASS STORAGE (SORBED):   0.7351316E+10              -0.1357680E+11
                            ---------------------------------------------------------------------------
                                              [TOTAL]:   0.7474894E+11 KG           -0.7405211E+11 KG  

                                                          NET (IN - OUT):   0.6968279E+09
                                                   DISCREPANCY (PERCENT):   0.9365901    
     1 CALLS TO GCG PACKAGE FOR TRANSPORT TIME STEP   2 IN FLOW TIME STEP   1 STRESS PERIOD  49
     4 TOTAL ITERATIONS



 >>>>>>>>>>>>>>>>>>>>>>>>>>>>>>>>>>>>>>>>>>>>>>>>>>>>>>>FOR COMPONENT NO. 01<<<<<<<<<<<<<<<<<<<<<<<<<<<<<<<<<<<<<<<<<<<<<<<<<<<<<<<


                                            -------------------------------------------
                                                      TRANSPORT STEP NO.    2
                                            -------------------------------------------

 TOTAL ELAPSED TIME SINCE BEGINNING OF SIMULATION =   14381.19    D   
 .....................................................................

                     CUMMULATIVE MASS BUDGETS AT END OF TRANSPORT STEP    2, TIME STEP    1, STRESS PERIOD   49
                     ------------------------------------------------------------------------------------------

                                                             IN                           OUT
                                                      ----------------             ----------------
                               CONSTANT CONCENTRATION:    0.000000                    0.000000    
                                        CONSTANT HEAD:    0.000000                  -0.3130132E+10
                                                WELLS:   0.3445597E+11                0.000000    
                               1ST/0TH ORDER REACTION:    0.000000                    0.000000    
                                MASS STORAGE (SOLUTE):   0.3316106E+11              -0.5758679E+11
                                MASS STORAGE (SORBED):   0.7403653E+10              -0.1360616E+11
                            ---------------------------------------------------------------------------
                                              [TOTAL]:   0.7502068E+11 KG           -0.7432309E+11 KG  

                                                          NET (IN - OUT):   0.6975898E+09
                                                   DISCREPANCY (PERCENT):   0.9342067    
     1 CALLS TO GCG PACKAGE FOR TRANSPORT TIME STEP   3 IN FLOW TIME STEP   1 STRESS PERIOD  49
     3 TOTAL ITERATIONS
  MAXIMUM CONCENTRATION CHANGES FOR EACH ITERATION:
  MAX. CHANGE LAYER,ROW,COL MAX. CHANGE LAYER,ROW,COL MAX. CHANGE LAYER,ROW,COL MAX. CHANGE LAYER,ROW,COL MAX. CHANGE LAYER,ROW,COL
 ------------------------------------------------------------------------------------------------------------------------------------
   0.8511E-01 (  1, 25, 81)  0.3950E-03 (  1, 26, 80)  0.1609E-05 (  1, 28, 79)



 >>>>>>>>>>>>>>>>>>>>>>>>>>>>>>>>>>>>>>>>>>>>>>>>>>>>>>>FOR COMPONENT NO. 01<<<<<<<<<<<<<<<<<<<<<<<<<<<<<<<<<<<<<<<<<<<<<<<<<<<<<<<


                                            -------------------------------------------
                                                      TRANSPORT STEP NO.    3
                                            -------------------------------------------

 TOTAL ELAPSED TIME SINCE BEGINNING OF SIMULATION =   14417.50    D   
 .....................................................................

                     CUMMULATIVE MASS BUDGETS AT END OF TRANSPORT STEP    3, TIME STEP    1, STRESS PERIOD   49
                     ------------------------------------------------------------------------------------------

                                                             IN                           OUT
                                                      ----------------             ----------------
                               CONSTANT CONCENTRATION:    0.000000                    0.000000    
                                        CONSTANT HEAD:    0.000000                  -0.3190125E+10
                                                WELLS:   0.3445597E+11                0.000000    
                               1ST/0TH ORDER REACTION:    0.000000                    0.000000    
                                MASS STORAGE (SOLUTE):   0.3326990E+11              -0.5764694E+11
                                MASS STORAGE (SORBED):   0.7429611E+10              -0.1362062E+11
                            ---------------------------------------------------------------------------
                                              [TOTAL]:   0.7515547E+11 KG           -0.7445768E+11 KG  

                                                          NET (IN - OUT):   0.6977946E+09
                                                   DISCREPANCY (PERCENT):   0.9327984    


                                   ++++++++++++++++++++++++++++++++++++++++++++++++++++++++++++++
                                                       STRESS PERIOD NO.  050
                                   ++++++++++++++++++++++++++++++++++++++++++++++++++++++++++++++


 LENGTH OF CURRENT STRESS PERIOD =   182.5000    
 NUMBER OF TIME STEPS FOR CURRENT STRESS PERIOD =    1
 TIME STEP MULTIPLIER USED IN FLOW SOLUTION =   1.000000    

 ***Type of Transport Simulation is TRANSIENT

 USER-SPECIFIED TRANSPORT STEPSIZE =   0.000000    D   
 MAXIMUM NUMBER OF TRANSPORT STEPS ALLOWED  IN ONE FLOW TIME STEP =     50000
 MULTIPLIER FOR SUCCESSIVE TRANSPORT STEPS  [USED IN IMPLICIT SCHEMES] =     1.000
 MAXIMUM TRANSPORT STEP SIZE  [USED IN IMPLICIT SCHEMES] =   0.000000    D   

 POINT SINKS/SOURCES OF SPECIFIED CONCENTRATION REUSED FROM LAST STRESS PERIOD


                                          ================================================
                                                         TIME STEP NO.  001
                                          ================================================

 FROM TIME =   14418.     TO    14600.    


                    "THKSAT          " FLOW TERMS FOR TIME STEP  1, STRESS PERIOD 50 READ UNFORMATTED ON UNIT 10
                    --------------------------------------------------------------------------------------------

                    "QXX             " FLOW TERMS FOR TIME STEP  1, STRESS PERIOD 50 READ UNFORMATTED ON UNIT 10
                    --------------------------------------------------------------------------------------------

                    "QYY             " FLOW TERMS FOR TIME STEP  1, STRESS PERIOD 50 READ UNFORMATTED ON UNIT 10
                    --------------------------------------------------------------------------------------------

 MAXIMUM STEPSIZE DURING WHICH ANY PARTICLE CANNOT MOVE MORE THAN ONE CELL
 =  155.0    (WHEN MIN. R.F.=1)  AT K=   1, I=  20, J=  39

 MAXIMUM STEPSIZE WHICH MEETS STABILITY CRITERION OF THE ADVECTION TERM
 (FOR PURE FINITE-DIFFERENCE OPTION, MIXELM=0) 
 =  146.2    (WHEN MIN. R.F.=1)  AT K=   1, I=  25, J=  54

                    "CNH             " FLOW TERMS FOR TIME STEP  1, STRESS PERIOD 50 READ UNFORMATTED ON UNIT 10
                    --------------------------------------------------------------------------------------------

                    "WEL             " FLOW TERMS FOR TIME STEP  1, STRESS PERIOD 50 READ UNFORMATTED ON UNIT 10
                    --------------------------------------------------------------------------------------------


 TOTAL NUMBER OF POINT SOURCES/SINKS PRESENT IN THE FLOW MODEL =    83

 MAXIMUM STEPSIZE WHICH MEETS STABILITY CRITERION OF THE SINK & SOURCE TERM
 =  182.4    (WHEN MIN. R.F.=1)  AT K=   1, I=  16, J=   1

 MAXIMUM STEPSIZE WHICH MEETS STABILITY CRITERION OF THE DISPERSION TERM
 =  53.25    (WHEN MIN. R.F.=1)  AT K=   1, I=  20, J=  38


     1 CALLS TO GCG PACKAGE FOR TRANSPORT TIME STEP   1 IN FLOW TIME STEP   1 STRESS PERIOD  50
     4 TOTAL ITERATIONS



 >>>>>>>>>>>>>>>>>>>>>>>>>>>>>>>>>>>>>>>>>>>>>>>>>>>>>>>FOR COMPONENT NO. 01<<<<<<<<<<<<<<<<<<<<<<<<<<<<<<<<<<<<<<<<<<<<<<<<<<<<<<<


                                            -------------------------------------------
                                                      TRANSPORT STEP NO.    1
                                            -------------------------------------------

 TOTAL ELAPSED TIME SINCE BEGINNING OF SIMULATION =   14490.59    D   
 .....................................................................

                     CUMMULATIVE MASS BUDGETS AT END OF TRANSPORT STEP    1, TIME STEP    1, STRESS PERIOD   50
                     ------------------------------------------------------------------------------------------

                                                             IN                           OUT
                                                      ----------------             ----------------
                               CONSTANT CONCENTRATION:    0.000000                    0.000000    
                                        CONSTANT HEAD:    0.000000                  -0.3313477E+10
                                                WELLS:   0.3445597E+11                0.000000    
                               1ST/0TH ORDER REACTION:    0.000000                    0.000000    
                                MASS STORAGE (SOLUTE):   0.3348872E+11              -0.5776542E+11
                                MASS STORAGE (SORBED):   0.7481853E+10              -0.1364907E+11
                            ---------------------------------------------------------------------------
                                              [TOTAL]:   0.7542654E+11 KG           -0.7472796E+11 KG  

                                                          NET (IN - OUT):   0.6985728E+09
                                                   DISCREPANCY (PERCENT):   0.9304720    
     1 CALLS TO GCG PACKAGE FOR TRANSPORT TIME STEP   2 IN FLOW TIME STEP   1 STRESS PERIOD  50
     4 TOTAL ITERATIONS



 >>>>>>>>>>>>>>>>>>>>>>>>>>>>>>>>>>>>>>>>>>>>>>>>>>>>>>>FOR COMPONENT NO. 01<<<<<<<<<<<<<<<<<<<<<<<<<<<<<<<<<<<<<<<<<<<<<<<<<<<<<<<


                                            -------------------------------------------
                                                      TRANSPORT STEP NO.    2
                                            -------------------------------------------

 TOTAL ELAPSED TIME SINCE BEGINNING OF SIMULATION =   14563.69    D   
 .....................................................................

                     CUMMULATIVE MASS BUDGETS AT END OF TRANSPORT STEP    2, TIME STEP    1, STRESS PERIOD   50
                     ------------------------------------------------------------------------------------------

                                                             IN                           OUT
                                                      ----------------             ----------------
                               CONSTANT CONCENTRATION:    0.000000                    0.000000    
                                        CONSTANT HEAD:    0.000000                  -0.3439435E+10
                                                WELLS:   0.3445597E+11                0.000000    
                               1ST/0TH ORDER REACTION:    0.000000                    0.000000    
                                MASS STORAGE (SOLUTE):   0.3370715E+11              -0.5788143E+11
                                MASS STORAGE (SORBED):   0.7534032E+10              -0.1367693E+11
                            ---------------------------------------------------------------------------
                                              [TOTAL]:   0.7569715E+11 KG           -0.7499779E+11 KG  

                                                          NET (IN - OUT):   0.6993592E+09
                                                   DISCREPANCY (PERCENT):   0.9281787    
     1 CALLS TO GCG PACKAGE FOR TRANSPORT TIME STEP   3 IN FLOW TIME STEP   1 STRESS PERIOD  50
     3 TOTAL ITERATIONS
  MAXIMUM CONCENTRATION CHANGES FOR EACH ITERATION:
  MAX. CHANGE LAYER,ROW,COL MAX. CHANGE LAYER,ROW,COL MAX. CHANGE LAYER,ROW,COL MAX. CHANGE LAYER,ROW,COL MAX. CHANGE LAYER,ROW,COL
 ------------------------------------------------------------------------------------------------------------------------------------
   0.8973E-01 (  1, 25, 81)  0.4166E-03 (  1, 26, 80)  0.1699E-05 (  1, 28, 79)



 >>>>>>>>>>>>>>>>>>>>>>>>>>>>>>>>>>>>>>>>>>>>>>>>>>>>>>>FOR COMPONENT NO. 01<<<<<<<<<<<<<<<<<<<<<<<<<<<<<<<<<<<<<<<<<<<<<<<<<<<<<<<


                                            -------------------------------------------
                                                      TRANSPORT STEP NO.    3
                                            -------------------------------------------

 TOTAL ELAPSED TIME SINCE BEGINNING OF SIMULATION =   14600.00    D   
 .....................................................................

                     CUMMULATIVE MASS BUDGETS AT END OF TRANSPORT STEP    3, TIME STEP    1, STRESS PERIOD   50
                     ------------------------------------------------------------------------------------------

                                                             IN                           OUT
                                                      ----------------             ----------------
                               CONSTANT CONCENTRATION:    0.000000                    0.000000    
                                        CONSTANT HEAD:    0.000000                  -0.3502704E+10
                                                WELLS:   0.3445597E+11                0.000000    
                               1ST/0TH ORDER REACTION:    0.000000                    0.000000    
                                MASS STORAGE (SOLUTE):   0.3381551E+11              -0.5793848E+11
                                MASS STORAGE (SORBED):   0.7559913E+10              -0.1369064E+11
                            ---------------------------------------------------------------------------
                                              [TOTAL]:   0.7583139E+11 KG           -0.7513182E+11 KG  

                                                          NET (IN - OUT):   0.6995640E+09
                                                   DISCREPANCY (PERCENT):   0.9268007    
  ----- 
 | M T |
 | 3 D | END OF MODEL OUTPUT
  ----- 
