 LISTING FILE: binary_files_mt.list
                         UNIT  16

 OPENING mt3d_link.ftl
 FILE TYPE:FTL   UNIT  10

 OPENING binary_files_mt.btn
 FILE TYPE:BTN   UNIT  31

 OPENING binary_files_mt.adv
 FILE TYPE:ADV   UNIT  32

 OPENING binary_files_mt.dsp
 FILE TYPE:DSP   UNIT  33

 OPENING binary_files_mt.rct
 FILE TYPE:RCT   UNIT  36

 OPENING binary_files_mt.ssm
 FILE TYPE:SSM   UNIT  34

 OPENING binary_files_mt.gcg
 FILE TYPE:GCG   UNIT  35

                              +++++++++++++++++++++++++++++++++++++++++++++++++++++++++++++++++++++++
                              +                                                                     +
                              +                               MT3DMS                                +
                              +             A Modular 3D Multi-Species Transport Model              +
                              +    For Simulation of Advection, Dispersion and Chemical Reactions   +
                              +                of Contaminants in Groundwater Systems               +
                              +                                                                     +
                              +++++++++++++++++++++++++++++++++++++++++++++++++++++++++++++++++++++++

  ----- 
 | M T | ## BTN for MT3DMS, generated by Flopy.                                          
 | 3 D | ##                                                                              
  ----- 
 THE TRANSPORT MODEL CONSISTS OF     1 LAYER(S)   41 ROW(S)   81 COLUMN(S)
 NUMBER OF STRESS PERIOD(S) FOR TRANSPORT SIMULATION =    2
 NUMBER OF ALL COMPONENTS INCLUDED IN SIMULATION =    1
 NUMBER OF MOBILE COMPONENTS INCLUDED IN SIMULATION =    1
 UNIT FOR TIME IS D   ;  UNIT FOR LENGTH IS M   ;  UNIT FOR MASS IS KG  
 OPTIONAL PACKAGES INCLUDED IN CURRENT SIMULATION:
  o ADV   ON UNIT 32
  o DSP   ON UNIT 33
  o SSM   ON UNIT 34
  o RCT   ON UNIT 36
  o GCG   ON UNIT 35

 BTN5 -- BASIC TRANSPORT PACKAGE, VERSION 5, FEBRUARY 2010, INPUT READ FROM UNIT 31
      53380 ELEMENTS OF THE  X ARRAY USED BY THE BTN PACKAGE
       3322 ELEMENTS OF THE IX ARRAY USED BY THE BTN PACKAGE

 FMI5 -- FLOW MODEL INTERFACE PACKAGE, VERSION 5, FEBRUARY 2010, INPUT READ FROM UNIT 10
 FLOW MODEL IS STEADY-STATE
 FLOW MODEL CONTAINS CONSTANT-HEAD CELLS

 ADV5 -- ADVECTION PACKAGE, VERSION 5, FEBRUARY 2010, INPUT READ FROM UNIT 32
 ADVECTION IS SOLVED WITH THE ULTIMATE SCHEME
 COURANT NUMBER ALLOWED IN SOLVING THE ADVECTION TERM = 0.500    
          0 ELEMENTS OF THE  X ARRAY USED BY THE ADV PACKAGE
          0 ELEMENTS OF THE IX ARRAY USED BY THE ADV PACKAGE

 DSP5 -- DISPERSION PACKAGE, VERSION 5, FEBRUARY 2010, INPUT READ FROM UNIT 33
      36533 ELEMENTS OF THE  X ARRAY USED BY THE DSP PACKAGE
          0 ELEMENTS OF THE IX ARRAY USED BY THE DSP PACKAGE

 SSM5 -- SINK & SOURCE MIXING PACKAGE, VERSION 5, FEBRUARY 2010, INPUT READ FROM UNIT 34
 HEADER LINE OF THE SSM PACKAGE INPUT FILE:
  T F F F F F F F F F F F F F F F                                                                                                                                                                        
 MAJOR STRESS COMPONENTS PRESENT IN THE FLOW MODEL:
  o WELL [WEL]
 MAXIMUM NUMBER OF POINT SINKS/SOURCES =      83
       1079 ELEMENTS OF THE  X ARRAY USED BY THE SSM PACKAGE
          0 ELEMENTS OF THE IX ARRAY BY THE SSM PACKAGE

 RCT5 -- CHEMICAL REACTION PACKAGE, VERSION 5, FEBRUARY 2010, INPUT READ FROM UNIT 36
 TYPE OF SORPTION SELECTED IS [FREUNDLICH]
 FIRST-ORDER IRREVERSIBLE REACTION [RADIOACTIVE DECAY OR BIODEGRADATION] IS SIMULATED
 REACTION COEFFICIENTS ASSIGNED CELL-BY-CELL
 INITIAL SORBED/IMMOBILE PHASE CONCENTRATION ASSIGNED BY DEFAULT
      16605 ELEMENTS OF THE  X ARRAY USED BY THE RCT PACKAGE
          0 ELEMENTS OF THE IX ARRAY USED BY THE RCT PACKAGE

 GCG5 -- GENERALIZED CONJUGATE GRADIENT SOLVER PACKAGE, VERSION 5, FEBRUARY 2010 INPUT READ FROM UNIT 35
 MAXIMUM OF    1 OUTER ITERATIONS
        AND   50 INNER ITERATIONS ALLOWED FOR CLOSURE
 THE PRECONDITIONING TYPE SELECTED IS MODIFIED INCOMPLETE CHOLESKY (MIC).
 DISPERSION CROSS TERMS LUMPED INTO RIGHT-HAND-SIDE
      73112 ELEMENTS OF THE  X ARRAY USED BY THE GCG PACKAGE
        150 ELEMENTS OF THE IX ARRAY USED BY THE GCG PACKAGE

 ..........................................
 ELEMENTS OF THE  X ARRAY USED =    180710
 ELEMENTS OF THE IX ARRAY USED =      3473
 ..........................................

 LAYER NUMBER  AQUIFER TYPE
 ------------  ------------
       1            0
                                       WIDTH ALONG ROWS (DELR)  =   31.25000    
                                       WIDTH ALONG COLS (DELC)  =   31.25000    
                                       TOP ELEV. OF 1ST LAYER   =   0.000000    
                                       CELL THICKNESS (DZ)      =   50.00000     FOR LAYER  1
                                       POROSITY                 =  0.3000000     FOR LAYER  1
                                       CONCN. BOUNDARY ARRAY    =              1 FOR LAYER  1
                                       INITIAL CONC.: COMP.  01 =   0.000000     FOR LAYER  1

 VALUE INDICATING INACTIVE CONCENTRATION CELLS =   0.1000000E+31
 MINIMUM SATURATED THICKNESS [THKMIN] ALLOWED =  0.0100 OF TOTAL CELL THICKNESS


 OUTPUT CONTROL OPTIONS
 ----------------------

 DO NOT PRINT CELL CONCENTRATION
 DO NOT PRINT PARTICLE NUMBER IN EACH CELL
 DO NOT PRINT RETARDATION FACTOR
 DO NOT PRINT DISPERSION COEFFICIENT
 SAVE DISSOLVED PHASE CONCENTRATIONS IN UNFORMATTED FILES [MT3Dnnn.UCN]
  FOR EACH SPECIES ON UNITS 201 AND ABOVE
 SAVE SORBED/IMMOBILE PHASE CONCENTRATIONS IN UNFORMATTED FILES [MT3DnnnS.UCN]
  FOR EACH SPECIES ON UNITS 301 AND ABOVE, IF SORPTION/MASS TRANSFER SIMULATED

 SIMULATION RESULTS ARE SAVED EVERY   1 TRANSPORT STEP(S)

 NUMBER OF OBSERVATION POINTS =    0

 SAVE ONE-LINE SUMMARY OF MASS BUDGETS IN FILES [MT3Dnnn.MAS]
  FOR EACH SPECIES ON UNITS 601 AND ABOVE, EVERY  1 TRANSPORT STEPS

 MAXIMUM LENGTH ALONG THE X (J) AXIS =   2531.250    
 MAXIMUM LENGTH ALONG THE Y (I) AXIS =   1281.250    
 MAXIMUM LENGTH ALONG THE Z (K) AXIS =   50.00000    


 ADVECTION SOLUTION OPTIONS
 --------------------------

 ADVECTION IS SOLVED WITH THE ULTIMATE SCHEME
 COURANT NUMBER ALLOWED IN SOLVING THE ADVECTION TERM = 0.500    


 DISPERSION INPUT PARAMETERS
 ---------------------------

                                       LONG. DISPERSIVITY (AL)  =   35.00000     FOR LAYER  1
                                       H. TRANS./LONG. DISP.    =  0.3000000    
                                       V. TRANS./LONG. DISP.    =  0.1000000E-01
                                       DIFFUSION COEFFICIENT    =  0.1000000E-08


 SORPTION AND 1ST/0TH ORDER REACTION PARAMETERS
 ----------------------------------------------

                                       BULK DENSITY (RHOB)      =   1.587000     FOR LAYER  1
                                       1ST SORP. COEF. COMP. 01 =  0.1000000     FOR LAYER  1
                                       2ND SORP. COEF. COMP. 01 =  0.9000000     FOR LAYER  1
                                       SOLUTE RXN RATE: COMP 01 =   0.000000     FOR LAYER  1
                                       SORBED RXN RATE: COMP 01 =   0.000000     FOR LAYER  1

 MAXIMUM STEPSIZE WHICH MEETS STABILITY CRITERION OF THE REACTION TERM
 = 0.1000E+31 AT K=   0, I=   0, J=   0



                                               SOLUTION BY THE GENERALIZED CONJUGATE GRADIENT METHOD
                                               -----------------------------------------------------
                                     MAXIMUM OUTER ITERATIONS ALLOWED FOR CLOSURE =        1
                                     MAXIMUM INNER ITERATIONS ALLOWED FOR CLOSURE =       50
                                                    PRECONDITIONING TYPE SELECTED =    3
                                                           ACCELERATION PARAMETER =     1.0000    
                                       CONCENTRATION CHANGE CRITERION FOR CLOSURE =    0.10000E-04
                                       GCG CONCENTRATION CHANGE PRINTOUT INTERVAL =      999


                                   ++++++++++++++++++++++++++++++++++++++++++++++++++++++++++++++
                                                       STRESS PERIOD NO.  001
                                   ++++++++++++++++++++++++++++++++++++++++++++++++++++++++++++++


 LENGTH OF CURRENT STRESS PERIOD =   7300.000    
 NUMBER OF TIME STEPS FOR CURRENT STRESS PERIOD =    1
 TIME STEP MULTIPLIER USED IN FLOW SOLUTION =   1.000000    

 ***Type of Transport Simulation is TRANSIENT

 USER-SPECIFIED TRANSPORT STEPSIZE =   0.000000    D   
 MAXIMUM NUMBER OF TRANSPORT STEPS ALLOWED  IN ONE FLOW TIME STEP =     50000
 MULTIPLIER FOR SUCCESSIVE TRANSPORT STEPS  [USED IN IMPLICIT SCHEMES] =     1.000
 MAXIMUM TRANSPORT STEP SIZE  [USED IN IMPLICIT SCHEMES] =   0.000000    D   

       NO    LAYER   ROW   COLUMN   CONCENTRATION       TYPE            COMPONENT
       1       1      26      16       10000.00         WELL                1


                                          ================================================
                                                         TIME STEP NO.  001
                                          ================================================

 FROM TIME =   0.0000     TO    7300.0    


                    "THKSAT          " FLOW TERMS FOR TIME STEP  1, STRESS PERIOD  1 READ UNFORMATTED ON UNIT 10
                    --------------------------------------------------------------------------------------------

                    "QXX             " FLOW TERMS FOR TIME STEP  1, STRESS PERIOD  1 READ UNFORMATTED ON UNIT 10
                    --------------------------------------------------------------------------------------------

                    "QYY             " FLOW TERMS FOR TIME STEP  1, STRESS PERIOD  1 READ UNFORMATTED ON UNIT 10
                    --------------------------------------------------------------------------------------------

 MAXIMUM STEPSIZE DURING WHICH ANY PARTICLE CANNOT MOVE MORE THAN ONE CELL
 =  155.0    (WHEN MIN. R.F.=1)  AT K=   1, I=  20, J=  39

 MAXIMUM STEPSIZE WHICH MEETS STABILITY CRITERION OF THE ADVECTION TERM
 (FOR PURE FINITE-DIFFERENCE OPTION, MIXELM=0) 
 =  146.2    (WHEN MIN. R.F.=1)  AT K=   1, I=  25, J=  54

                    "CNH             " FLOW TERMS FOR TIME STEP  1, STRESS PERIOD  1 READ UNFORMATTED ON UNIT 10
                    --------------------------------------------------------------------------------------------

                    "WEL             " FLOW TERMS FOR TIME STEP  1, STRESS PERIOD  1 READ UNFORMATTED ON UNIT 10
                    --------------------------------------------------------------------------------------------


 TOTAL NUMBER OF POINT SOURCES/SINKS PRESENT IN THE FLOW MODEL =    83

 MAXIMUM STEPSIZE WHICH MEETS STABILITY CRITERION OF THE SINK & SOURCE TERM
 =  182.4    (WHEN MIN. R.F.=1)  AT K=   1, I=  16, J=   1

 MAXIMUM STEPSIZE WHICH MEETS STABILITY CRITERION OF THE DISPERSION TERM
 =  53.24    (WHEN MIN. R.F.=1)  AT K=   1, I=  20, J=  38


     1 CALLS TO GCG PACKAGE FOR TRANSPORT TIME STEP   1 IN FLOW TIME STEP   1 STRESS PERIOD   1
     5 TOTAL ITERATIONS



 >>>>>>>>>>>>>>>>>>>>>>>>>>>>>>>>>>>>>>>>>>>>>>>>>>>>>>>FOR COMPONENT NO. 01<<<<<<<<<<<<<<<<<<<<<<<<<<<<<<<<<<<<<<<<<<<<<<<<<<<<<<<


                                            -------------------------------------------
                                                      TRANSPORT STEP NO.    1
                                            -------------------------------------------

 TOTAL ELAPSED TIME SINCE BEGINNING OF SIMULATION =   73.08928    D   
 .....................................................................

                     CUMMULATIVE MASS BUDGETS AT END OF TRANSPORT STEP    1, TIME STEP    1, STRESS PERIOD    1
                     ------------------------------------------------------------------------------------------

                                                             IN                           OUT
                                                      ----------------             ----------------
                               CONSTANT CONCENTRATION:    0.000000                    0.000000    
                                        CONSTANT HEAD:    0.000000                  -0.3144608E-34
                                                WELLS:    730892.8                    0.000000    
                               1ST/0TH ORDER REACTION:    0.000000                    0.000000    
                                MASS STORAGE (SOLUTE):    0.000000                   -730892.3    
                                MASS STORAGE (SORBED):    0.000000                   -287531.4    
                            ---------------------------------------------------------------------------
                                              [TOTAL]:    730892.8     KG            -1018424.     KG  

                                                          NET (IN - OUT):   -287530.9    
                                                   DISCREPANCY (PERCENT):   -32.87352    
     1 CALLS TO GCG PACKAGE FOR TRANSPORT TIME STEP   2 IN FLOW TIME STEP   1 STRESS PERIOD   1
     4 TOTAL ITERATIONS



 >>>>>>>>>>>>>>>>>>>>>>>>>>>>>>>>>>>>>>>>>>>>>>>>>>>>>>>FOR COMPONENT NO. 01<<<<<<<<<<<<<<<<<<<<<<<<<<<<<<<<<<<<<<<<<<<<<<<<<<<<<<<


                                            -------------------------------------------
                                                      TRANSPORT STEP NO.    2
                                            -------------------------------------------

 TOTAL ELAPSED TIME SINCE BEGINNING OF SIMULATION =   146.1786    D   
 .....................................................................

                     CUMMULATIVE MASS BUDGETS AT END OF TRANSPORT STEP    2, TIME STEP    1, STRESS PERIOD    1
                     ------------------------------------------------------------------------------------------

                                                             IN                           OUT
                                                      ----------------             ----------------
                               CONSTANT CONCENTRATION:    0.000000                    0.000000    
                                        CONSTANT HEAD:    0.000000                  -0.6291714E-34
                                                WELLS:    1461786.                    0.000000    
                               1ST/0TH ORDER REACTION:    0.000000                    0.000000    
                                MASS STORAGE (SOLUTE):   0.8781706E-38               -1242568.    
                                MASS STORAGE (SORBED):   0.4837299E-34               -490271.2    
                            ---------------------------------------------------------------------------
                                              [TOTAL]:    1461786.     KG            -1732839.     KG  

                                                          NET (IN - OUT):   -271053.2    
                                                   DISCREPANCY (PERCENT):   -16.96933    
     1 CALLS TO GCG PACKAGE FOR TRANSPORT TIME STEP   3 IN FLOW TIME STEP   1 STRESS PERIOD   1
     4 TOTAL ITERATIONS



 >>>>>>>>>>>>>>>>>>>>>>>>>>>>>>>>>>>>>>>>>>>>>>>>>>>>>>>FOR COMPONENT NO. 01<<<<<<<<<<<<<<<<<<<<<<<<<<<<<<<<<<<<<<<<<<<<<<<<<<<<<<<


                                            -------------------------------------------
                                                      TRANSPORT STEP NO.    3
                                            -------------------------------------------

 TOTAL ELAPSED TIME SINCE BEGINNING OF SIMULATION =   219.2678    D   
 .....................................................................

                     CUMMULATIVE MASS BUDGETS AT END OF TRANSPORT STEP    3, TIME STEP    1, STRESS PERIOD    1
                     ------------------------------------------------------------------------------------------

                                                             IN                           OUT
                                                      ----------------             ----------------
                               CONSTANT CONCENTRATION:    0.000000                    0.000000    
                                        CONSTANT HEAD:    0.000000                  -0.9439819E-34
                                                WELLS:    2192678.                    0.000000    
                               1ST/0TH ORDER REACTION:    0.000000                    0.000000    
                                MASS STORAGE (SOLUTE):   0.2052050E-37               -1755412.    
                                MASS STORAGE (SORBED):   0.1417878E-33               -695335.6    
                            ---------------------------------------------------------------------------
                                              [TOTAL]:    2192678.     KG            -2450748.     KG  

                                                          NET (IN - OUT):   -258069.5    
                                                   DISCREPANCY (PERCENT):   -11.11548    
     1 CALLS TO GCG PACKAGE FOR TRANSPORT TIME STEP   4 IN FLOW TIME STEP   1 STRESS PERIOD   1
     4 TOTAL ITERATIONS



 >>>>>>>>>>>>>>>>>>>>>>>>>>>>>>>>>>>>>>>>>>>>>>>>>>>>>>>FOR COMPONENT NO. 01<<<<<<<<<<<<<<<<<<<<<<<<<<<<<<<<<<<<<<<<<<<<<<<<<<<<<<<


                                            -------------------------------------------
                                                      TRANSPORT STEP NO.    4
                                            -------------------------------------------

 TOTAL ELAPSED TIME SINCE BEGINNING OF SIMULATION =   292.3571    D   
 .....................................................................

                     CUMMULATIVE MASS BUDGETS AT END OF TRANSPORT STEP    4, TIME STEP    1, STRESS PERIOD    1
                     ------------------------------------------------------------------------------------------

                                                             IN                           OUT
                                                      ----------------             ----------------
                               CONSTANT CONCENTRATION:    0.000000                    0.000000    
                                        CONSTANT HEAD:    0.000000                  -0.1258892E-33
                                                WELLS:    2923571.                    0.000000    
                               1ST/0TH ORDER REACTION:    0.000000                    0.000000    
                                MASS STORAGE (SOLUTE):   0.2932461E-37               -2268558.    
                                MASS STORAGE (SORBED):   0.2109484E-33               -901857.1    
                            ---------------------------------------------------------------------------
                                              [TOTAL]:    2923571.     KG            -3170415.     KG  

                                                          NET (IN - OUT):   -246844.0    
                                                   DISCREPANCY (PERCENT):   -8.101233    
     1 CALLS TO GCG PACKAGE FOR TRANSPORT TIME STEP   5 IN FLOW TIME STEP   1 STRESS PERIOD   1
     4 TOTAL ITERATIONS



 >>>>>>>>>>>>>>>>>>>>>>>>>>>>>>>>>>>>>>>>>>>>>>>>>>>>>>>FOR COMPONENT NO. 01<<<<<<<<<<<<<<<<<<<<<<<<<<<<<<<<<<<<<<<<<<<<<<<<<<<<<<<


                                            -------------------------------------------
                                                      TRANSPORT STEP NO.    5
                                            -------------------------------------------

 TOTAL ELAPSED TIME SINCE BEGINNING OF SIMULATION =   365.4464    D   
 .....................................................................

                     CUMMULATIVE MASS BUDGETS AT END OF TRANSPORT STEP    5, TIME STEP    1, STRESS PERIOD    1
                     ------------------------------------------------------------------------------------------

                                                             IN                           OUT
                                                      ----------------             ----------------
                               CONSTANT CONCENTRATION:    0.000000                    0.000000    
                                        CONSTANT HEAD:    0.000000                  -0.1574003E-33
                                                WELLS:    3654464.                    0.000000    
                               1ST/0TH ORDER REACTION:    0.000000                    0.000000    
                                MASS STORAGE (SOLUTE):   0.3936273E-37               -2781778.    
                                MASS STORAGE (SORBED):   0.2814380E-33               -1109413.    
                            ---------------------------------------------------------------------------
                                              [TOTAL]:    3654464.     KG            -3891191.     KG  

                                                          NET (IN - OUT):   -236726.8    
                                                   DISCREPANCY (PERCENT):   -6.274518    
     1 CALLS TO GCG PACKAGE FOR TRANSPORT TIME STEP   6 IN FLOW TIME STEP   1 STRESS PERIOD   1
     4 TOTAL ITERATIONS



 >>>>>>>>>>>>>>>>>>>>>>>>>>>>>>>>>>>>>>>>>>>>>>>>>>>>>>>FOR COMPONENT NO. 01<<<<<<<<<<<<<<<<<<<<<<<<<<<<<<<<<<<<<<<<<<<<<<<<<<<<<<<


                                            -------------------------------------------
                                                      TRANSPORT STEP NO.    6
                                            -------------------------------------------

 TOTAL ELAPSED TIME SINCE BEGINNING OF SIMULATION =   438.5357    D   
 .....................................................................

                     CUMMULATIVE MASS BUDGETS AT END OF TRANSPORT STEP    6, TIME STEP    1, STRESS PERIOD    1
                     ------------------------------------------------------------------------------------------

                                                             IN                           OUT
                                                      ----------------             ----------------
                               CONSTANT CONCENTRATION:    0.000000                    0.000000    
                                        CONSTANT HEAD:    0.000000                  -0.1889164E-33
                                                WELLS:    4385357.                    0.000000    
                               1ST/0TH ORDER REACTION:    0.000000                    0.000000    
                                MASS STORAGE (SOLUTE):   0.4810746E-37               -3294992.    
                                MASS STORAGE (SORBED):   0.3431012E-33               -1317745.    
                            ---------------------------------------------------------------------------
                                              [TOTAL]:    4385357.     KG            -4612736.     KG  

                                                          NET (IN - OUT):   -227379.5    
                                                   DISCREPANCY (PERCENT):   -5.053948    
     1 CALLS TO GCG PACKAGE FOR TRANSPORT TIME STEP   7 IN FLOW TIME STEP   1 STRESS PERIOD   1
     4 TOTAL ITERATIONS



 >>>>>>>>>>>>>>>>>>>>>>>>>>>>>>>>>>>>>>>>>>>>>>>>>>>>>>>FOR COMPONENT NO. 01<<<<<<<<<<<<<<<<<<<<<<<<<<<<<<<<<<<<<<<<<<<<<<<<<<<<<<<


                                            -------------------------------------------
                                                      TRANSPORT STEP NO.    7
                                            -------------------------------------------

 TOTAL ELAPSED TIME SINCE BEGINNING OF SIMULATION =   511.6250    D   
 .....................................................................

                     CUMMULATIVE MASS BUDGETS AT END OF TRANSPORT STEP    7, TIME STEP    1, STRESS PERIOD    1
                     ------------------------------------------------------------------------------------------

                                                             IN                           OUT
                                                      ----------------             ----------------
                               CONSTANT CONCENTRATION:    0.000000                    0.000000    
                                        CONSTANT HEAD:    0.000000                  -0.2204525E-33
                                                WELLS:    5116250.                    0.000000    
                               1ST/0TH ORDER REACTION:    0.000000                    0.000000    
                                MASS STORAGE (SOLUTE):   0.5851469E-37               -3808163.    
                                MASS STORAGE (SORBED):   0.4180604E-33               -1526685.    
                            ---------------------------------------------------------------------------
                                              [TOTAL]:    5116250.     KG            -5334848.     KG  

                                                          NET (IN - OUT):   -218598.0    
                                                   DISCREPANCY (PERCENT):   -4.183254    
     1 CALLS TO GCG PACKAGE FOR TRANSPORT TIME STEP   8 IN FLOW TIME STEP   1 STRESS PERIOD   1
     4 TOTAL ITERATIONS



 >>>>>>>>>>>>>>>>>>>>>>>>>>>>>>>>>>>>>>>>>>>>>>>>>>>>>>>FOR COMPONENT NO. 01<<<<<<<<<<<<<<<<<<<<<<<<<<<<<<<<<<<<<<<<<<<<<<<<<<<<<<<


                                            -------------------------------------------
                                                      TRANSPORT STEP NO.    8
                                            -------------------------------------------

 TOTAL ELAPSED TIME SINCE BEGINNING OF SIMULATION =   584.7143    D   
 .....................................................................

                     CUMMULATIVE MASS BUDGETS AT END OF TRANSPORT STEP    8, TIME STEP    1, STRESS PERIOD    1
                     ------------------------------------------------------------------------------------------

                                                             IN                           OUT
                                                      ----------------             ----------------
                               CONSTANT CONCENTRATION:    0.000000                    0.000000    
                                        CONSTANT HEAD:    0.000000                  -0.2520086E-33
                                                WELLS:    5847143.                    0.000000    
                               1ST/0TH ORDER REACTION:    0.000000                    0.000000    
                                MASS STORAGE (SOLUTE):   0.6861387E-37               -4321277.    
                                MASS STORAGE (SORBED):   0.4859713E-33               -1736119.    
                            ---------------------------------------------------------------------------
                                              [TOTAL]:    5847143.     KG            -6057396.     KG  

                                                          NET (IN - OUT):   -210253.0    
                                                   DISCREPANCY (PERCENT):   -3.532316    
     1 CALLS TO GCG PACKAGE FOR TRANSPORT TIME STEP   9 IN FLOW TIME STEP   1 STRESS PERIOD   1
     4 TOTAL ITERATIONS



 >>>>>>>>>>>>>>>>>>>>>>>>>>>>>>>>>>>>>>>>>>>>>>>>>>>>>>>FOR COMPONENT NO. 01<<<<<<<<<<<<<<<<<<<<<<<<<<<<<<<<<<<<<<<<<<<<<<<<<<<<<<<


                                            -------------------------------------------
                                                      TRANSPORT STEP NO.    9
                                            -------------------------------------------

 TOTAL ELAPSED TIME SINCE BEGINNING OF SIMULATION =   657.8036    D   
 .....................................................................

                     CUMMULATIVE MASS BUDGETS AT END OF TRANSPORT STEP    9, TIME STEP    1, STRESS PERIOD    1
                     ------------------------------------------------------------------------------------------

                                                             IN                           OUT
                                                      ----------------             ----------------
                               CONSTANT CONCENTRATION:    0.000000                    0.000000    
                                        CONSTANT HEAD:    0.000000                  -0.2835697E-33
                                                WELLS:    6578036.                    0.000000    
                               1ST/0TH ORDER REACTION:    0.000000                    0.000000    
                                MASS STORAGE (SOLUTE):   0.7456516E-37               -4834326.    
                                MASS STORAGE (SORBED):   0.5233809E-33               -1945963.    
                            ---------------------------------------------------------------------------
                                              [TOTAL]:    6578036.     KG            -6780288.     KG  

                                                          NET (IN - OUT):   -202252.0    
                                                   DISCREPANCY (PERCENT):   -3.028104    
     1 CALLS TO GCG PACKAGE FOR TRANSPORT TIME STEP  10 IN FLOW TIME STEP   1 STRESS PERIOD   1
     4 TOTAL ITERATIONS



 >>>>>>>>>>>>>>>>>>>>>>>>>>>>>>>>>>>>>>>>>>>>>>>>>>>>>>>FOR COMPONENT NO. 01<<<<<<<<<<<<<<<<<<<<<<<<<<<<<<<<<<<<<<<<<<<<<<<<<<<<<<<


                                            -------------------------------------------
                                                      TRANSPORT STEP NO.   10
                                            -------------------------------------------

 TOTAL ELAPSED TIME SINCE BEGINNING OF SIMULATION =   730.8929    D   
 .....................................................................

                     CUMMULATIVE MASS BUDGETS AT END OF TRANSPORT STEP   10, TIME STEP    1, STRESS PERIOD    1
                     ------------------------------------------------------------------------------------------

                                                             IN                           OUT
                                                      ----------------             ----------------
                               CONSTANT CONCENTRATION:    0.000000                    0.000000    
                                        CONSTANT HEAD:    0.000000                  -0.3151559E-33
                                                WELLS:    7308929.                    0.000000    
                               1ST/0TH ORDER REACTION:    0.000000                    0.000000    
                                MASS STORAGE (SOLUTE):   0.8478991E-37               -5347292.    
                                MASS STORAGE (SORBED):   0.5894820E-33               -2156162.    
                            ---------------------------------------------------------------------------
                                              [TOTAL]:    7308929.     KG            -7503454.     KG  

                                                          NET (IN - OUT):   -194525.0    
                                                   DISCREPANCY (PERCENT):   -2.626519    
     1 CALLS TO GCG PACKAGE FOR TRANSPORT TIME STEP  11 IN FLOW TIME STEP   1 STRESS PERIOD   1
     4 TOTAL ITERATIONS



 >>>>>>>>>>>>>>>>>>>>>>>>>>>>>>>>>>>>>>>>>>>>>>>>>>>>>>>FOR COMPONENT NO. 01<<<<<<<<<<<<<<<<<<<<<<<<<<<<<<<<<<<<<<<<<<<<<<<<<<<<<<<


                                            -------------------------------------------
                                                      TRANSPORT STEP NO.   11
                                            -------------------------------------------

 TOTAL ELAPSED TIME SINCE BEGINNING OF SIMULATION =   803.9822    D   
 .....................................................................

                     CUMMULATIVE MASS BUDGETS AT END OF TRANSPORT STEP   11, TIME STEP    1, STRESS PERIOD    1
                     ------------------------------------------------------------------------------------------

                                                             IN                           OUT
                                                      ----------------             ----------------
                               CONSTANT CONCENTRATION:    0.000000                    0.000000    
                                        CONSTANT HEAD:    0.000000                  -0.3467570E-33
                                                WELLS:    8039822.                    0.000000    
                               1ST/0TH ORDER REACTION:    0.000000                    0.000000    
                                MASS STORAGE (SOLUTE):   0.9326610E-37               -5860184.    
                                MASS STORAGE (SORBED):   0.6435928E-33               -2366666.    
                            ---------------------------------------------------------------------------
                                              [TOTAL]:    8039822.     KG            -8226850.     KG  

                                                          NET (IN - OUT):   -187028.0    
                                                   DISCREPANCY (PERCENT):   -2.299524    
     1 CALLS TO GCG PACKAGE FOR TRANSPORT TIME STEP  12 IN FLOW TIME STEP   1 STRESS PERIOD   1
     4 TOTAL ITERATIONS



 >>>>>>>>>>>>>>>>>>>>>>>>>>>>>>>>>>>>>>>>>>>>>>>>>>>>>>>FOR COMPONENT NO. 01<<<<<<<<<<<<<<<<<<<<<<<<<<<<<<<<<<<<<<<<<<<<<<<<<<<<<<<


                                            -------------------------------------------
                                                      TRANSPORT STEP NO.   12
                                            -------------------------------------------

 TOTAL ELAPSED TIME SINCE BEGINNING OF SIMULATION =   877.0715    D   
 .....................................................................

                     CUMMULATIVE MASS BUDGETS AT END OF TRANSPORT STEP   12, TIME STEP    1, STRESS PERIOD    1
                     ------------------------------------------------------------------------------------------

                                                             IN                           OUT
                                                      ----------------             ----------------
                               CONSTANT CONCENTRATION:    0.000000                    0.000000    
                                        CONSTANT HEAD:    0.000000                  -0.3783681E-33
                                                WELLS:    8770715.                    0.000000    
                               1ST/0TH ORDER REACTION:    0.000000                    0.000000    
                                MASS STORAGE (SOLUTE):   0.1002058E-36               -6372994.    
                                MASS STORAGE (SORBED):   0.6888046E-33               -2577441.    
                            ---------------------------------------------------------------------------
                                              [TOTAL]:    8770715.     KG            -8950434.     KG  

                                                          NET (IN - OUT):   -179719.0    
                                                   DISCREPANCY (PERCENT):   -2.028300    
     1 CALLS TO GCG PACKAGE FOR TRANSPORT TIME STEP  13 IN FLOW TIME STEP   1 STRESS PERIOD   1
     4 TOTAL ITERATIONS



 >>>>>>>>>>>>>>>>>>>>>>>>>>>>>>>>>>>>>>>>>>>>>>>>>>>>>>>FOR COMPONENT NO. 01<<<<<<<<<<<<<<<<<<<<<<<<<<<<<<<<<<<<<<<<<<<<<<<<<<<<<<<


                                            -------------------------------------------
                                                      TRANSPORT STEP NO.   13
                                            -------------------------------------------

 TOTAL ELAPSED TIME SINCE BEGINNING OF SIMULATION =   950.1608    D   
 .....................................................................

                     CUMMULATIVE MASS BUDGETS AT END OF TRANSPORT STEP   13, TIME STEP    1, STRESS PERIOD    1
                     ------------------------------------------------------------------------------------------

                                                             IN                           OUT
                                                      ----------------             ----------------
                               CONSTANT CONCENTRATION:    0.000000                    0.000000    
                                        CONSTANT HEAD:    0.000000                  -0.4099942E-33
                                                WELLS:    9501608.                    0.000000    
                               1ST/0TH ORDER REACTION:    0.000000                    0.000000    
                                MASS STORAGE (SOLUTE):   0.1075738E-36               -6885711.    
                                MASS STORAGE (SORBED):   0.7359097E-33               -2788468.    
                            ---------------------------------------------------------------------------
                                              [TOTAL]:    9501608.     KG            -9674178.     KG  

                                                          NET (IN - OUT):   -172570.0    
                                                   DISCREPANCY (PERCENT):   -1.799874    
     1 CALLS TO GCG PACKAGE FOR TRANSPORT TIME STEP  14 IN FLOW TIME STEP   1 STRESS PERIOD   1
     4 TOTAL ITERATIONS



 >>>>>>>>>>>>>>>>>>>>>>>>>>>>>>>>>>>>>>>>>>>>>>>>>>>>>>>FOR COMPONENT NO. 01<<<<<<<<<<<<<<<<<<<<<<<<<<<<<<<<<<<<<<<<<<<<<<<<<<<<<<<


                                            -------------------------------------------
                                                      TRANSPORT STEP NO.   14
                                            -------------------------------------------

 TOTAL ELAPSED TIME SINCE BEGINNING OF SIMULATION =   1023.250    D   
 .....................................................................

                     CUMMULATIVE MASS BUDGETS AT END OF TRANSPORT STEP   14, TIME STEP    1, STRESS PERIOD    1
                     ------------------------------------------------------------------------------------------

                                                             IN                           OUT
                                                      ----------------             ----------------
                               CONSTANT CONCENTRATION:    0.000000                    0.000000    
                                        CONSTANT HEAD:    0.000000                  -0.4416353E-33
                                                WELLS:   0.1023250E+08                0.000000    
                               1ST/0TH ORDER REACTION:    0.000000                    0.000000    
                                MASS STORAGE (SOLUTE):   0.1153339E-36               -7398330.    
                                MASS STORAGE (SORBED):   0.7830745E-33               -2999732.    
                            ---------------------------------------------------------------------------
                                              [TOTAL]:   0.1023250E+08 KG           -0.1039806E+08 KG  

                                                          NET (IN - OUT):   -165560.0    
                                                   DISCREPANCY (PERCENT):   -1.604998    
     1 CALLS TO GCG PACKAGE FOR TRANSPORT TIME STEP  15 IN FLOW TIME STEP   1 STRESS PERIOD   1
     4 TOTAL ITERATIONS



 >>>>>>>>>>>>>>>>>>>>>>>>>>>>>>>>>>>>>>>>>>>>>>>>>>>>>>>FOR COMPONENT NO. 01<<<<<<<<<<<<<<<<<<<<<<<<<<<<<<<<<<<<<<<<<<<<<<<<<<<<<<<


                                            -------------------------------------------
                                                      TRANSPORT STEP NO.   15
                                            -------------------------------------------

 TOTAL ELAPSED TIME SINCE BEGINNING OF SIMULATION =   1096.339    D   
 .....................................................................

                     CUMMULATIVE MASS BUDGETS AT END OF TRANSPORT STEP   15, TIME STEP    1, STRESS PERIOD    1
                     ------------------------------------------------------------------------------------------

                                                             IN                           OUT
                                                      ----------------             ----------------
                               CONSTANT CONCENTRATION:    0.000000                    0.000000    
                                        CONSTANT HEAD:    0.000000                  -0.4732914E-33
                                                WELLS:   0.1096339E+08                0.000000    
                               1ST/0TH ORDER REACTION:    0.000000                    0.000000    
                                MASS STORAGE (SOLUTE):   0.1226651E-36               -7910846.    
                                MASS STORAGE (SORBED):   0.8274467E-33               -3211222.    
                            ---------------------------------------------------------------------------
                                              [TOTAL]:   0.1096339E+08 KG           -0.1112207E+08 KG  

                                                          NET (IN - OUT):   -158674.0    
                                                   DISCREPANCY (PERCENT):   -1.436909    
     1 CALLS TO GCG PACKAGE FOR TRANSPORT TIME STEP  16 IN FLOW TIME STEP   1 STRESS PERIOD   1
     4 TOTAL ITERATIONS



 >>>>>>>>>>>>>>>>>>>>>>>>>>>>>>>>>>>>>>>>>>>>>>>>>>>>>>>FOR COMPONENT NO. 01<<<<<<<<<<<<<<<<<<<<<<<<<<<<<<<<<<<<<<<<<<<<<<<<<<<<<<<


                                            -------------------------------------------
                                                      TRANSPORT STEP NO.   16
                                            -------------------------------------------

 TOTAL ELAPSED TIME SINCE BEGINNING OF SIMULATION =   1169.429    D   
 .....................................................................

                     CUMMULATIVE MASS BUDGETS AT END OF TRANSPORT STEP   16, TIME STEP    1, STRESS PERIOD    1
                     ------------------------------------------------------------------------------------------

                                                             IN                           OUT
                                                      ----------------             ----------------
                               CONSTANT CONCENTRATION:    0.000000                    0.000000    
                                        CONSTANT HEAD:    0.000000                  -0.5049574E-33
                                                WELLS:   0.1169429E+08                0.000000    
                               1ST/0TH ORDER REACTION:    0.000000                    0.000000    
                                MASS STORAGE (SOLUTE):   0.1283936E-36               -8423258.    
                                MASS STORAGE (SORBED):   0.8615700E-33               -3422926.    
                            ---------------------------------------------------------------------------
                                              [TOTAL]:   0.1169429E+08 KG           -0.1184618E+08 KG  

                                                          NET (IN - OUT):   -151897.0    
                                                   DISCREPANCY (PERCENT):   -1.290518    
     1 CALLS TO GCG PACKAGE FOR TRANSPORT TIME STEP  17 IN FLOW TIME STEP   1 STRESS PERIOD   1
     4 TOTAL ITERATIONS



 >>>>>>>>>>>>>>>>>>>>>>>>>>>>>>>>>>>>>>>>>>>>>>>>>>>>>>>FOR COMPONENT NO. 01<<<<<<<<<<<<<<<<<<<<<<<<<<<<<<<<<<<<<<<<<<<<<<<<<<<<<<<


                                            -------------------------------------------
                                                      TRANSPORT STEP NO.   17
                                            -------------------------------------------

 TOTAL ELAPSED TIME SINCE BEGINNING OF SIMULATION =   1242.518    D   
 .....................................................................

                     CUMMULATIVE MASS BUDGETS AT END OF TRANSPORT STEP   17, TIME STEP    1, STRESS PERIOD    1
                     ------------------------------------------------------------------------------------------

                                                             IN                           OUT
                                                      ----------------             ----------------
                               CONSTANT CONCENTRATION:    0.000000                    0.000000    
                                        CONSTANT HEAD:    0.000000                  -0.5366435E-33
                                                WELLS:   0.1242518E+08                0.000000    
                               1ST/0TH ORDER REACTION:    0.000000                    0.000000    
                                MASS STORAGE (SOLUTE):   0.1332386E-36               -8935565.    
                                MASS STORAGE (SORBED):   0.8905076E-33               -3634833.    
                            ---------------------------------------------------------------------------
                                              [TOTAL]:   0.1242518E+08 KG           -0.1257040E+08 KG  

                                                          NET (IN - OUT):   -145218.0    
                                                   DISCREPANCY (PERCENT):   -1.161950    
     1 CALLS TO GCG PACKAGE FOR TRANSPORT TIME STEP  18 IN FLOW TIME STEP   1 STRESS PERIOD   1
     4 TOTAL ITERATIONS



 >>>>>>>>>>>>>>>>>>>>>>>>>>>>>>>>>>>>>>>>>>>>>>>>>>>>>>>FOR COMPONENT NO. 01<<<<<<<<<<<<<<<<<<<<<<<<<<<<<<<<<<<<<<<<<<<<<<<<<<<<<<<


                                            -------------------------------------------
                                                      TRANSPORT STEP NO.   18
                                            -------------------------------------------

 TOTAL ELAPSED TIME SINCE BEGINNING OF SIMULATION =   1315.607    D   
 .....................................................................

                     CUMMULATIVE MASS BUDGETS AT END OF TRANSPORT STEP   18, TIME STEP    1, STRESS PERIOD    1
                     ------------------------------------------------------------------------------------------

                                                             IN                           OUT
                                                      ----------------             ----------------
                               CONSTANT CONCENTRATION:    0.000000                    0.000000    
                                        CONSTANT HEAD:    0.000000                  -0.5683346E-33
                                                WELLS:   0.1315607E+08                0.000000    
                               1ST/0TH ORDER REACTION:    0.000000                    0.000000    
                                MASS STORAGE (SOLUTE):   0.1394381E-36               -9447768.    
                                MASS STORAGE (SORBED):   0.9271867E-33               -3846932.    
                            ---------------------------------------------------------------------------
                                              [TOTAL]:   0.1315607E+08 KG           -0.1329470E+08 KG  

                                                          NET (IN - OUT):   -138627.0    
                                                   DISCREPANCY (PERCENT):   -1.048189    
     1 CALLS TO GCG PACKAGE FOR TRANSPORT TIME STEP  19 IN FLOW TIME STEP   1 STRESS PERIOD   1
     4 TOTAL ITERATIONS



 >>>>>>>>>>>>>>>>>>>>>>>>>>>>>>>>>>>>>>>>>>>>>>>>>>>>>>>FOR COMPONENT NO. 01<<<<<<<<<<<<<<<<<<<<<<<<<<<<<<<<<<<<<<<<<<<<<<<<<<<<<<<


                                            -------------------------------------------
                                                      TRANSPORT STEP NO.   19
                                            -------------------------------------------

 TOTAL ELAPSED TIME SINCE BEGINNING OF SIMULATION =   1388.696    D   
 .....................................................................

                     CUMMULATIVE MASS BUDGETS AT END OF TRANSPORT STEP   19, TIME STEP    1, STRESS PERIOD    1
                     ------------------------------------------------------------------------------------------

                                                             IN                           OUT
                                                      ----------------             ----------------
                               CONSTANT CONCENTRATION:    0.000000                    0.000000    
                                        CONSTANT HEAD:    0.000000                  -0.6000507E-33
                                                WELLS:   0.1388697E+08                0.000000    
                               1ST/0TH ORDER REACTION:    0.000000                    0.000000    
                                MASS STORAGE (SOLUTE):   0.1463962E-36               -9959866.    
                                MASS STORAGE (SORBED):   0.9679516E-33               -4059217.    
                            ---------------------------------------------------------------------------
                                              [TOTAL]:   0.1388697E+08 KG           -0.1401908E+08 KG  

                                                          NET (IN - OUT):   -132117.0    
                                                   DISCREPANCY (PERCENT):  -0.9468700    
     1 CALLS TO GCG PACKAGE FOR TRANSPORT TIME STEP  20 IN FLOW TIME STEP   1 STRESS PERIOD   1
     4 TOTAL ITERATIONS



 >>>>>>>>>>>>>>>>>>>>>>>>>>>>>>>>>>>>>>>>>>>>>>>>>>>>>>>FOR COMPONENT NO. 01<<<<<<<<<<<<<<<<<<<<<<<<<<<<<<<<<<<<<<<<<<<<<<<<<<<<<<<


                                            -------------------------------------------
                                                      TRANSPORT STEP NO.   20
                                            -------------------------------------------

 TOTAL ELAPSED TIME SINCE BEGINNING OF SIMULATION =   1461.786    D   
 .....................................................................

                     CUMMULATIVE MASS BUDGETS AT END OF TRANSPORT STEP   20, TIME STEP    1, STRESS PERIOD    1
                     ------------------------------------------------------------------------------------------

                                                             IN                           OUT
                                                      ----------------             ----------------
                               CONSTANT CONCENTRATION:    0.000000                    0.000000    
                                        CONSTANT HEAD:    0.000000                  -0.6317869E-33
                                                WELLS:   0.1461786E+08                0.000000    
                               1ST/0TH ORDER REACTION:    0.000000                    0.000000    
                                MASS STORAGE (SOLUTE):   0.1529643E-36              -0.1047186E+08
                                MASS STORAGE (SORBED):   0.1007154E-32               -4271679.    
                            ---------------------------------------------------------------------------
                                              [TOTAL]:   0.1461786E+08 KG           -0.1474354E+08 KG  

                                                          NET (IN - OUT):   -125676.0    
                                                   DISCREPANCY (PERCENT):  -0.8560629    
     1 CALLS TO GCG PACKAGE FOR TRANSPORT TIME STEP  21 IN FLOW TIME STEP   1 STRESS PERIOD   1
     4 TOTAL ITERATIONS



 >>>>>>>>>>>>>>>>>>>>>>>>>>>>>>>>>>>>>>>>>>>>>>>>>>>>>>>FOR COMPONENT NO. 01<<<<<<<<<<<<<<<<<<<<<<<<<<<<<<<<<<<<<<<<<<<<<<<<<<<<<<<


                                            -------------------------------------------
                                                      TRANSPORT STEP NO.   21
                                            -------------------------------------------

 TOTAL ELAPSED TIME SINCE BEGINNING OF SIMULATION =   1534.875    D   
 .....................................................................

                     CUMMULATIVE MASS BUDGETS AT END OF TRANSPORT STEP   21, TIME STEP    1, STRESS PERIOD    1
                     ------------------------------------------------------------------------------------------

                                                             IN                           OUT
                                                      ----------------             ----------------
                               CONSTANT CONCENTRATION:    0.000000                    0.000000    
                                        CONSTANT HEAD:    0.000000                  -0.6635331E-33
                                                WELLS:   0.1534875E+08                0.000000    
                               1ST/0TH ORDER REACTION:    0.000000                    0.000000    
                                MASS STORAGE (SOLUTE):   0.1601306E-36              -0.1098374E+08
                                MASS STORAGE (SORBED):   0.1048921E-32               -4484312.    
                            ---------------------------------------------------------------------------
                                              [TOTAL]:   0.1534875E+08 KG           -0.1546805E+08 KG  

                                                          NET (IN - OUT):   -119300.0    
                                                   DISCREPANCY (PERCENT):  -0.7742529    
     1 CALLS TO GCG PACKAGE FOR TRANSPORT TIME STEP  22 IN FLOW TIME STEP   1 STRESS PERIOD   1
     4 TOTAL ITERATIONS



 >>>>>>>>>>>>>>>>>>>>>>>>>>>>>>>>>>>>>>>>>>>>>>>>>>>>>>>FOR COMPONENT NO. 01<<<<<<<<<<<<<<<<<<<<<<<<<<<<<<<<<<<<<<<<<<<<<<<<<<<<<<<


                                            -------------------------------------------
                                                      TRANSPORT STEP NO.   22
                                            -------------------------------------------

 TOTAL ELAPSED TIME SINCE BEGINNING OF SIMULATION =   1607.964    D   
 .....................................................................

                     CUMMULATIVE MASS BUDGETS AT END OF TRANSPORT STEP   22, TIME STEP    1, STRESS PERIOD    1
                     ------------------------------------------------------------------------------------------

                                                             IN                           OUT
                                                      ----------------             ----------------
                               CONSTANT CONCENTRATION:    0.000000                    0.000000    
                                        CONSTANT HEAD:    0.000000                  -0.6952893E-33
                                                WELLS:   0.1607964E+08                0.000000    
                               1ST/0TH ORDER REACTION:    0.000000                    0.000000    
                                MASS STORAGE (SOLUTE):   0.1676859E-36              -0.1149552E+08
                                MASS STORAGE (SORBED):   0.1093058E-32               -4697110.    
                            ---------------------------------------------------------------------------
                                              [TOTAL]:   0.1607964E+08 KG           -0.1619263E+08 KG  

                                                          NET (IN - OUT):   -112982.0    
                                                   DISCREPANCY (PERCENT):  -0.7001800    
     1 CALLS TO GCG PACKAGE FOR TRANSPORT TIME STEP  23 IN FLOW TIME STEP   1 STRESS PERIOD   1
     4 TOTAL ITERATIONS



 >>>>>>>>>>>>>>>>>>>>>>>>>>>>>>>>>>>>>>>>>>>>>>>>>>>>>>>FOR COMPONENT NO. 01<<<<<<<<<<<<<<<<<<<<<<<<<<<<<<<<<<<<<<<<<<<<<<<<<<<<<<<


                                            -------------------------------------------
                                                      TRANSPORT STEP NO.   23
                                            -------------------------------------------

 TOTAL ELAPSED TIME SINCE BEGINNING OF SIMULATION =   1681.053    D   
 .....................................................................

                     CUMMULATIVE MASS BUDGETS AT END OF TRANSPORT STEP   23, TIME STEP    1, STRESS PERIOD    1
                     ------------------------------------------------------------------------------------------

                                                             IN                           OUT
                                                      ----------------             ----------------
                               CONSTANT CONCENTRATION:    0.000000                    0.000000    
                                        CONSTANT HEAD:    0.000000                  -0.7270555E-33
                                                WELLS:   0.1681054E+08                0.000000    
                               1ST/0TH ORDER REACTION:    0.000000                    0.000000    
                                MASS STORAGE (SOLUTE):   0.1749521E-36              -0.1200719E+08
                                MASS STORAGE (SORBED):   0.1135808E-32               -4910068.    
                            ---------------------------------------------------------------------------
                                              [TOTAL]:   0.1681054E+08 KG           -0.1691726E+08 KG  

                                                          NET (IN - OUT):   -106718.0    
                                                   DISCREPANCY (PERCENT):  -0.6328194    
     1 CALLS TO GCG PACKAGE FOR TRANSPORT TIME STEP  24 IN FLOW TIME STEP   1 STRESS PERIOD   1
     4 TOTAL ITERATIONS



 >>>>>>>>>>>>>>>>>>>>>>>>>>>>>>>>>>>>>>>>>>>>>>>>>>>>>>>FOR COMPONENT NO. 01<<<<<<<<<<<<<<<<<<<<<<<<<<<<<<<<<<<<<<<<<<<<<<<<<<<<<<<


                                            -------------------------------------------
                                                      TRANSPORT STEP NO.   24
                                            -------------------------------------------

 TOTAL ELAPSED TIME SINCE BEGINNING OF SIMULATION =   1754.142    D   
 .....................................................................

                     CUMMULATIVE MASS BUDGETS AT END OF TRANSPORT STEP   24, TIME STEP    1, STRESS PERIOD    1
                     ------------------------------------------------------------------------------------------

                                                             IN                           OUT
                                                      ----------------             ----------------
                               CONSTANT CONCENTRATION:    0.000000                    0.000000    
                                        CONSTANT HEAD:    0.000000                  -0.7588418E-33
                                                WELLS:   0.1754143E+08                0.000000    
                               1ST/0TH ORDER REACTION:    0.000000                    0.000000    
                                MASS STORAGE (SOLUTE):   0.1836962E-36              -0.1251875E+08
                                MASS STORAGE (SORBED):   0.1186658E-32               -5123180.    
                            ---------------------------------------------------------------------------
                                              [TOTAL]:   0.1754143E+08 KG           -0.1764193E+08 KG  

                                                          NET (IN - OUT):   -100502.0    
                                                   DISCREPANCY (PERCENT):  -0.5713041    
     1 CALLS TO GCG PACKAGE FOR TRANSPORT TIME STEP  25 IN FLOW TIME STEP   1 STRESS PERIOD   1
     4 TOTAL ITERATIONS



 >>>>>>>>>>>>>>>>>>>>>>>>>>>>>>>>>>>>>>>>>>>>>>>>>>>>>>>FOR COMPONENT NO. 01<<<<<<<<<<<<<<<<<<<<<<<<<<<<<<<<<<<<<<<<<<<<<<<<<<<<<<<


                                            -------------------------------------------
                                                      TRANSPORT STEP NO.   25
                                            -------------------------------------------

 TOTAL ELAPSED TIME SINCE BEGINNING OF SIMULATION =   1827.232    D   
 .....................................................................

                     CUMMULATIVE MASS BUDGETS AT END OF TRANSPORT STEP   25, TIME STEP    1, STRESS PERIOD    1
                     ------------------------------------------------------------------------------------------

                                                             IN                           OUT
                                                      ----------------             ----------------
                               CONSTANT CONCENTRATION:    0.000000                    0.000000    
                                        CONSTANT HEAD:    0.000000                  -0.7906381E-33
                                                WELLS:   0.1827232E+08                0.000000    
                               1ST/0TH ORDER REACTION:    0.000000                    0.000000    
                                MASS STORAGE (SOLUTE):   0.1893190E-36              -0.1303021E+08
                                MASS STORAGE (SORBED):   0.1218856E-32               -5336444.    
                            ---------------------------------------------------------------------------
                                              [TOTAL]:   0.1827232E+08 KG           -0.1836665E+08 KG  

                                                          NET (IN - OUT):   -94330.00    
                                                   DISCREPANCY (PERCENT):  -0.5149161    
     1 CALLS TO GCG PACKAGE FOR TRANSPORT TIME STEP  26 IN FLOW TIME STEP   1 STRESS PERIOD   1
     4 TOTAL ITERATIONS



 >>>>>>>>>>>>>>>>>>>>>>>>>>>>>>>>>>>>>>>>>>>>>>>>>>>>>>>FOR COMPONENT NO. 01<<<<<<<<<<<<<<<<<<<<<<<<<<<<<<<<<<<<<<<<<<<<<<<<<<<<<<<


                                            -------------------------------------------
                                                      TRANSPORT STEP NO.   26
                                            -------------------------------------------

 TOTAL ELAPSED TIME SINCE BEGINNING OF SIMULATION =   1900.321    D   
 .....................................................................

                     CUMMULATIVE MASS BUDGETS AT END OF TRANSPORT STEP   26, TIME STEP    1, STRESS PERIOD    1
                     ------------------------------------------------------------------------------------------

                                                             IN                           OUT
                                                      ----------------             ----------------
                               CONSTANT CONCENTRATION:    0.000000                    0.000000    
                                        CONSTANT HEAD:    0.000000                  -0.8224443E-33
                                                WELLS:   0.1900321E+08                0.000000    
                               1ST/0TH ORDER REACTION:    0.000000                    0.000000    
                                MASS STORAGE (SOLUTE):   0.1933422E-36              -0.1354156E+08
                                MASS STORAGE (SORBED):   0.1241696E-32               -5549856.    
                            ---------------------------------------------------------------------------
                                              [TOTAL]:   0.1900321E+08 KG           -0.1909142E+08 KG  

                                                          NET (IN - OUT):   -88202.00    
                                                   DISCREPANCY (PERCENT):  -0.4630679    
     1 CALLS TO GCG PACKAGE FOR TRANSPORT TIME STEP  27 IN FLOW TIME STEP   1 STRESS PERIOD   1
     4 TOTAL ITERATIONS



 >>>>>>>>>>>>>>>>>>>>>>>>>>>>>>>>>>>>>>>>>>>>>>>>>>>>>>>FOR COMPONENT NO. 01<<<<<<<<<<<<<<<<<<<<<<<<<<<<<<<<<<<<<<<<<<<<<<<<<<<<<<<


                                            -------------------------------------------
                                                      TRANSPORT STEP NO.   27
                                            -------------------------------------------

 TOTAL ELAPSED TIME SINCE BEGINNING OF SIMULATION =   1973.410    D   
 .....................................................................

                     CUMMULATIVE MASS BUDGETS AT END OF TRANSPORT STEP   27, TIME STEP    1, STRESS PERIOD    1
                     ------------------------------------------------------------------------------------------

                                                             IN                           OUT
                                                      ----------------             ----------------
                               CONSTANT CONCENTRATION:    0.000000                    0.000000    
                                        CONSTANT HEAD:    0.000000                  -0.8542706E-33
                                                WELLS:   0.1973411E+08                0.000000    
                               1ST/0TH ORDER REACTION:    0.000000                    0.000000    
                                MASS STORAGE (SOLUTE):   0.1965043E-36              -0.1405281E+08
                                MASS STORAGE (SORBED):   0.1259342E-32               -5763412.    
                            ---------------------------------------------------------------------------
                                              [TOTAL]:   0.1973411E+08 KG           -0.1981622E+08 KG  

                                                          NET (IN - OUT):   -82114.00    
                                                   DISCREPANCY (PERCENT):  -0.4152380    
     1 CALLS TO GCG PACKAGE FOR TRANSPORT TIME STEP  28 IN FLOW TIME STEP   1 STRESS PERIOD   1
     4 TOTAL ITERATIONS



 >>>>>>>>>>>>>>>>>>>>>>>>>>>>>>>>>>>>>>>>>>>>>>>>>>>>>>>FOR COMPONENT NO. 01<<<<<<<<<<<<<<<<<<<<<<<<<<<<<<<<<<<<<<<<<<<<<<<<<<<<<<<


                                            -------------------------------------------
                                                      TRANSPORT STEP NO.   28
                                            -------------------------------------------

 TOTAL ELAPSED TIME SINCE BEGINNING OF SIMULATION =   2046.499    D   
 .....................................................................

                     CUMMULATIVE MASS BUDGETS AT END OF TRANSPORT STEP   28, TIME STEP    1, STRESS PERIOD    1
                     ------------------------------------------------------------------------------------------

                                                             IN                           OUT
                                                      ----------------             ----------------
                               CONSTANT CONCENTRATION:    0.000000                    0.000000    
                                        CONSTANT HEAD:    0.000000                  -0.8861019E-33
                                                WELLS:   0.2046500E+08                0.000000    
                               1ST/0TH ORDER REACTION:    0.000000                    0.000000    
                                MASS STORAGE (SOLUTE):   0.2005697E-36              -0.1456395E+08
                                MASS STORAGE (SORBED):   0.1281718E-32               -5977108.    
                            ---------------------------------------------------------------------------
                                              [TOTAL]:   0.2046500E+08 KG           -0.2054106E+08 KG  

                                                          NET (IN - OUT):   -76062.00    
                                                   DISCREPANCY (PERCENT):  -0.3709793    
     1 CALLS TO GCG PACKAGE FOR TRANSPORT TIME STEP  29 IN FLOW TIME STEP   1 STRESS PERIOD   1
     4 TOTAL ITERATIONS



 >>>>>>>>>>>>>>>>>>>>>>>>>>>>>>>>>>>>>>>>>>>>>>>>>>>>>>>FOR COMPONENT NO. 01<<<<<<<<<<<<<<<<<<<<<<<<<<<<<<<<<<<<<<<<<<<<<<<<<<<<<<<


                                            -------------------------------------------
                                                      TRANSPORT STEP NO.   29
                                            -------------------------------------------

 TOTAL ELAPSED TIME SINCE BEGINNING OF SIMULATION =   2119.589    D   
 .....................................................................

                     CUMMULATIVE MASS BUDGETS AT END OF TRANSPORT STEP   29, TIME STEP    1, STRESS PERIOD    1
                     ------------------------------------------------------------------------------------------

                                                             IN                           OUT
                                                      ----------------             ----------------
                               CONSTANT CONCENTRATION:    0.000000                    0.000000    
                                        CONSTANT HEAD:    0.000000                  -0.9179632E-33
                                                WELLS:   0.2119589E+08                0.000000    
                               1ST/0TH ORDER REACTION:    0.000000                    0.000000    
                                MASS STORAGE (SOLUTE):   0.2037718E-36              -0.1507499E+08
                                MASS STORAGE (SORBED):   0.1299396E-32               -6190943.    
                            ---------------------------------------------------------------------------
                                              [TOTAL]:   0.2119589E+08 KG           -0.2126593E+08 KG  

                                                          NET (IN - OUT):   -70042.00    
                                                   DISCREPANCY (PERCENT):  -0.3299057    
     1 CALLS TO GCG PACKAGE FOR TRANSPORT TIME STEP  30 IN FLOW TIME STEP   1 STRESS PERIOD   1
     4 TOTAL ITERATIONS



 >>>>>>>>>>>>>>>>>>>>>>>>>>>>>>>>>>>>>>>>>>>>>>>>>>>>>>>FOR COMPONENT NO. 01<<<<<<<<<<<<<<<<<<<<<<<<<<<<<<<<<<<<<<<<<<<<<<<<<<<<<<<


                                            -------------------------------------------
                                                      TRANSPORT STEP NO.   30
                                            -------------------------------------------

 TOTAL ELAPSED TIME SINCE BEGINNING OF SIMULATION =   2192.678    D   
 .....................................................................

                     CUMMULATIVE MASS BUDGETS AT END OF TRANSPORT STEP   30, TIME STEP    1, STRESS PERIOD    1
                     ------------------------------------------------------------------------------------------

                                                             IN                           OUT
                                                      ----------------             ----------------
                               CONSTANT CONCENTRATION:    0.000000                    0.000000    
                                        CONSTANT HEAD:    0.000000                  -0.9498445E-33
                                                WELLS:   0.2192678E+08                0.000000    
                               1ST/0TH ORDER REACTION:    0.000000                    0.000000    
                                MASS STORAGE (SOLUTE):   0.2066246E-36              -0.1558592E+08
                                MASS STORAGE (SORBED):   0.1315134E-32               -6404912.    
                            ---------------------------------------------------------------------------
                                              [TOTAL]:   0.2192678E+08 KG           -0.2199084E+08 KG  

                                                          NET (IN - OUT):   -64056.00    
                                                   DISCREPANCY (PERCENT):  -0.2917098    
     1 CALLS TO GCG PACKAGE FOR TRANSPORT TIME STEP  31 IN FLOW TIME STEP   1 STRESS PERIOD   1
     4 TOTAL ITERATIONS



 >>>>>>>>>>>>>>>>>>>>>>>>>>>>>>>>>>>>>>>>>>>>>>>>>>>>>>>FOR COMPONENT NO. 01<<<<<<<<<<<<<<<<<<<<<<<<<<<<<<<<<<<<<<<<<<<<<<<<<<<<<<<


                                            -------------------------------------------
                                                      TRANSPORT STEP NO.   31
                                            -------------------------------------------

 TOTAL ELAPSED TIME SINCE BEGINNING OF SIMULATION =   2265.767    D   
 .....................................................................

                     CUMMULATIVE MASS BUDGETS AT END OF TRANSPORT STEP   31, TIME STEP    1, STRESS PERIOD    1
                     ------------------------------------------------------------------------------------------

                                                             IN                           OUT
                                                      ----------------             ----------------
                               CONSTANT CONCENTRATION:    0.000000                    0.000000    
                                        CONSTANT HEAD:    0.000000                  -0.9817308E-33
                                                WELLS:   0.2265767E+08                0.000000    
                               1ST/0TH ORDER REACTION:    0.000000                    0.000000    
                                MASS STORAGE (SOLUTE):   0.2060238E-28              -0.1609676E+08
                                MASS STORAGE (SORBED):   0.1033755E-25               -6619014.    
                            ---------------------------------------------------------------------------
                                              [TOTAL]:   0.2265767E+08 KG           -0.2271577E+08 KG  

                                                          NET (IN - OUT):   -58098.00    
                                                   DISCREPANCY (PERCENT):  -0.2560881    
     1 CALLS TO GCG PACKAGE FOR TRANSPORT TIME STEP  32 IN FLOW TIME STEP   1 STRESS PERIOD   1
     4 TOTAL ITERATIONS



 >>>>>>>>>>>>>>>>>>>>>>>>>>>>>>>>>>>>>>>>>>>>>>>>>>>>>>>FOR COMPONENT NO. 01<<<<<<<<<<<<<<<<<<<<<<<<<<<<<<<<<<<<<<<<<<<<<<<<<<<<<<<


                                            -------------------------------------------
                                                      TRANSPORT STEP NO.   32
                                            -------------------------------------------

 TOTAL ELAPSED TIME SINCE BEGINNING OF SIMULATION =   2338.857    D   
 .....................................................................

                     CUMMULATIVE MASS BUDGETS AT END OF TRANSPORT STEP   32, TIME STEP    1, STRESS PERIOD    1
                     ------------------------------------------------------------------------------------------

                                                             IN                           OUT
                                                      ----------------             ----------------
                               CONSTANT CONCENTRATION:    0.000000                    0.000000    
                                        CONSTANT HEAD:    0.000000                  -0.1013637E-32
                                                WELLS:   0.2338857E+08                0.000000    
                               1ST/0TH ORDER REACTION:    0.000000                    0.000000    
                                MASS STORAGE (SOLUTE):   0.1220726E-27              -0.1660749E+08
                                MASS STORAGE (SORBED):   0.6170259E-25               -6833244.    
                            ---------------------------------------------------------------------------
                                              [TOTAL]:   0.2338857E+08 KG           -0.2344073E+08 KG  

                                                          NET (IN - OUT):   -52168.00    
                                                   DISCREPANCY (PERCENT):  -0.2228007    
     1 CALLS TO GCG PACKAGE FOR TRANSPORT TIME STEP  33 IN FLOW TIME STEP   1 STRESS PERIOD   1
     4 TOTAL ITERATIONS



 >>>>>>>>>>>>>>>>>>>>>>>>>>>>>>>>>>>>>>>>>>>>>>>>>>>>>>>FOR COMPONENT NO. 01<<<<<<<<<<<<<<<<<<<<<<<<<<<<<<<<<<<<<<<<<<<<<<<<<<<<<<<


                                            -------------------------------------------
                                                      TRANSPORT STEP NO.   33
                                            -------------------------------------------

 TOTAL ELAPSED TIME SINCE BEGINNING OF SIMULATION =   2411.946    D   
 .....................................................................

                     CUMMULATIVE MASS BUDGETS AT END OF TRANSPORT STEP   33, TIME STEP    1, STRESS PERIOD    1
                     ------------------------------------------------------------------------------------------

                                                             IN                           OUT
                                                      ----------------             ----------------
                               CONSTANT CONCENTRATION:    0.000000                    0.000000    
                                        CONSTANT HEAD:    0.000000                  -0.1045553E-32
                                                WELLS:   0.2411946E+08                0.000000    
                               1ST/0TH ORDER REACTION:    0.000000                    0.000000    
                                MASS STORAGE (SOLUTE):   0.2064080E-27              -0.1711812E+08
                                MASS STORAGE (SORBED):   0.1101610E-24               -7047602.    
                            ---------------------------------------------------------------------------
                                              [TOTAL]:   0.2411946E+08 KG           -0.2416572E+08 KG  

                                                          NET (IN - OUT):   -46266.00    
                                                   DISCREPANCY (PERCENT):  -0.1916364    
     1 CALLS TO GCG PACKAGE FOR TRANSPORT TIME STEP  34 IN FLOW TIME STEP   1 STRESS PERIOD   1
     4 TOTAL ITERATIONS



 >>>>>>>>>>>>>>>>>>>>>>>>>>>>>>>>>>>>>>>>>>>>>>>>>>>>>>>FOR COMPONENT NO. 01<<<<<<<<<<<<<<<<<<<<<<<<<<<<<<<<<<<<<<<<<<<<<<<<<<<<<<<


                                            -------------------------------------------
                                                      TRANSPORT STEP NO.   34
                                            -------------------------------------------

 TOTAL ELAPSED TIME SINCE BEGINNING OF SIMULATION =   2485.035    D   
 .....................................................................

                     CUMMULATIVE MASS BUDGETS AT END OF TRANSPORT STEP   34, TIME STEP    1, STRESS PERIOD    1
                     ------------------------------------------------------------------------------------------

[...]
                               CONSTANT CONCENTRATION:    0.000000                    0.000000    
                                        CONSTANT HEAD:    0.000000                   -507598.4    
                                                WELLS:   0.7299993E+08                0.000000    
                               1ST/0TH ORDER REACTION:    0.000000                    0.000000    
                                MASS STORAGE (SOLUTE):   0.4339294E+08              -0.9264271E+08
                                MASS STORAGE (SORBED):   0.1739183E+08              -0.4013723E+08
                            ---------------------------------------------------------------------------
                                              [TOTAL]:   0.1337847E+09 KG           -0.1332875E+09 KG  

                                                          NET (IN - OUT):    497152.0    
                                                   DISCREPANCY (PERCENT):   0.3722978    
     1 CALLS TO GCG PACKAGE FOR TRANSPORT TIME STEP  92 IN FLOW TIME STEP   1 STRESS PERIOD   2
     3 TOTAL ITERATIONS



 >>>>>>>>>>>>>>>>>>>>>>>>>>>>>>>>>>>>>>>>>>>>>>>>>>>>>>>FOR COMPONENT NO. 01<<<<<<<<<<<<<<<<<<<<<<<<<<<<<<<<<<<<<<<<<<<<<<<<<<<<<<<


                                            -------------------------------------------
                                                      TRANSPORT STEP NO.   92
                                            -------------------------------------------

 TOTAL ELAPSED TIME SINCE BEGINNING OF SIMULATION =   14024.18    D   
 .....................................................................

                     CUMMULATIVE MASS BUDGETS AT END OF TRANSPORT STEP   92, TIME STEP    1, STRESS PERIOD    2
                     ------------------------------------------------------------------------------------------

                                                             IN                           OUT
                                                      ----------------             ----------------
                               CONSTANT CONCENTRATION:    0.000000                    0.000000    
                                        CONSTANT HEAD:    0.000000                   -548288.8    
                                                WELLS:   0.7299993E+08                0.000000    
                               1ST/0TH ORDER REACTION:    0.000000                    0.000000    
                                MASS STORAGE (SOLUTE):   0.4381416E+08              -0.9302799E+08
                                MASS STORAGE (SORBED):   0.1757135E+08              -0.4031069E+08
                            ---------------------------------------------------------------------------
                                              [TOTAL]:   0.1343854E+09 KG           -0.1338870E+09 KG  

                                                          NET (IN - OUT):    498464.0    
                                                   DISCREPANCY (PERCENT):   0.3716103    
     1 CALLS TO GCG PACKAGE FOR TRANSPORT TIME STEP  93 IN FLOW TIME STEP   1 STRESS PERIOD   2
     3 TOTAL ITERATIONS



 >>>>>>>>>>>>>>>>>>>>>>>>>>>>>>>>>>>>>>>>>>>>>>>>>>>>>>>FOR COMPONENT NO. 01<<<<<<<<<<<<<<<<<<<<<<<<<<<<<<<<<<<<<<<<<<<<<<<<<<<<<<<


                                            -------------------------------------------
                                                      TRANSPORT STEP NO.   93
                                            -------------------------------------------

 TOTAL ELAPSED TIME SINCE BEGINNING OF SIMULATION =   14097.27    D   
 .....................................................................

                     CUMMULATIVE MASS BUDGETS AT END OF TRANSPORT STEP   93, TIME STEP    1, STRESS PERIOD    2
                     ------------------------------------------------------------------------------------------

                                                             IN                           OUT
                                                      ----------------             ----------------
                               CONSTANT CONCENTRATION:    0.000000                    0.000000    
                                        CONSTANT HEAD:    0.000000                   -591428.8    
                                                WELLS:   0.7299993E+08                0.000000    
                               1ST/0TH ORDER REACTION:    0.000000                    0.000000    
                                MASS STORAGE (SOLUTE):   0.4423436E+08              -0.9341070E+08
                                MASS STORAGE (SORBED):   0.1775057E+08              -0.4048295E+08
                            ---------------------------------------------------------------------------
                                              [TOTAL]:   0.1349849E+09 KG           -0.1344851E+09 KG  

                                                          NET (IN - OUT):    499776.0    
                                                   DISCREPANCY (PERCENT):   0.3709326    
     1 CALLS TO GCG PACKAGE FOR TRANSPORT TIME STEP  94 IN FLOW TIME STEP   1 STRESS PERIOD   2
     3 TOTAL ITERATIONS



 >>>>>>>>>>>>>>>>>>>>>>>>>>>>>>>>>>>>>>>>>>>>>>>>>>>>>>>FOR COMPONENT NO. 01<<<<<<<<<<<<<<<<<<<<<<<<<<<<<<<<<<<<<<<<<<<<<<<<<<<<<<<


                                            -------------------------------------------
                                                      TRANSPORT STEP NO.   94
                                            -------------------------------------------

 TOTAL ELAPSED TIME SINCE BEGINNING OF SIMULATION =   14170.36    D   
 .....................................................................

                     CUMMULATIVE MASS BUDGETS AT END OF TRANSPORT STEP   94, TIME STEP    1, STRESS PERIOD    2
                     ------------------------------------------------------------------------------------------

                                                             IN                           OUT
                                                      ----------------             ----------------
                               CONSTANT CONCENTRATION:    0.000000                    0.000000    
                                        CONSTANT HEAD:    0.000000                   -637108.8    
                                                WELLS:   0.7299993E+08                0.000000    
                               1ST/0TH ORDER REACTION:    0.000000                    0.000000    
                                MASS STORAGE (SOLUTE):   0.4465354E+08              -0.9379078E+08
                                MASS STORAGE (SORBED):   0.1792950E+08              -0.4065397E+08
                            ---------------------------------------------------------------------------
                                              [TOTAL]:   0.1355830E+09 KG           -0.1350819E+09 KG  

                                                          NET (IN - OUT):    501120.0    
                                                   DISCREPANCY (PERCENT):   0.3702882    
     1 CALLS TO GCG PACKAGE FOR TRANSPORT TIME STEP  95 IN FLOW TIME STEP   1 STRESS PERIOD   2
     3 TOTAL ITERATIONS



 >>>>>>>>>>>>>>>>>>>>>>>>>>>>>>>>>>>>>>>>>>>>>>>>>>>>>>>FOR COMPONENT NO. 01<<<<<<<<<<<<<<<<<<<<<<<<<<<<<<<<<<<<<<<<<<<<<<<<<<<<<<<


                                            -------------------------------------------
                                                      TRANSPORT STEP NO.   95
                                            -------------------------------------------

 TOTAL ELAPSED TIME SINCE BEGINNING OF SIMULATION =   14243.45    D   
 .....................................................................

                     CUMMULATIVE MASS BUDGETS AT END OF TRANSPORT STEP   95, TIME STEP    1, STRESS PERIOD    2
                     ------------------------------------------------------------------------------------------

                                                             IN                           OUT
                                                      ----------------             ----------------
                               CONSTANT CONCENTRATION:    0.000000                    0.000000    
                                        CONSTANT HEAD:    0.000000                   -685419.6    
                                                WELLS:   0.7299993E+08                0.000000    
                               1ST/0TH ORDER REACTION:    0.000000                    0.000000    
                                MASS STORAGE (SOLUTE):   0.4507166E+08              -0.9416814E+08
                                MASS STORAGE (SORBED):   0.1810811E+08              -0.4082371E+08
                            ---------------------------------------------------------------------------
                                              [TOTAL]:   0.1361797E+09 KG           -0.1356773E+09 KG  

                                                          NET (IN - OUT):    502432.0    
                                                   DISCREPANCY (PERCENT):   0.3696296    
     1 CALLS TO GCG PACKAGE FOR TRANSPORT TIME STEP  96 IN FLOW TIME STEP   1 STRESS PERIOD   2
     3 TOTAL ITERATIONS



 >>>>>>>>>>>>>>>>>>>>>>>>>>>>>>>>>>>>>>>>>>>>>>>>>>>>>>>FOR COMPONENT NO. 01<<<<<<<<<<<<<<<<<<<<<<<<<<<<<<<<<<<<<<<<<<<<<<<<<<<<<<<


                                            -------------------------------------------
                                                      TRANSPORT STEP NO.   96
                                            -------------------------------------------

 TOTAL ELAPSED TIME SINCE BEGINNING OF SIMULATION =   14316.54    D   
 .....................................................................

                     CUMMULATIVE MASS BUDGETS AT END OF TRANSPORT STEP   96, TIME STEP    1, STRESS PERIOD    2
                     ------------------------------------------------------------------------------------------

                                                             IN                           OUT
                                                      ----------------             ----------------
                               CONSTANT CONCENTRATION:    0.000000                    0.000000    
                                        CONSTANT HEAD:    0.000000                   -736451.8    
                                                WELLS:   0.7299993E+08                0.000000    
                               1ST/0TH ORDER REACTION:    0.000000                    0.000000    
                                MASS STORAGE (SOLUTE):   0.4548875E+08              -0.9454273E+08
                                MASS STORAGE (SORBED):   0.1828642E+08              -0.4099216E+08
                            ---------------------------------------------------------------------------
                                              [TOTAL]:   0.1367751E+09 KG           -0.1362713E+09 KG  

                                                          NET (IN - OUT):    503760.0    
                                                   DISCREPANCY (PERCENT):   0.3689922    
     1 CALLS TO GCG PACKAGE FOR TRANSPORT TIME STEP  97 IN FLOW TIME STEP   1 STRESS PERIOD   2
     3 TOTAL ITERATIONS



 >>>>>>>>>>>>>>>>>>>>>>>>>>>>>>>>>>>>>>>>>>>>>>>>>>>>>>>FOR COMPONENT NO. 01<<<<<<<<<<<<<<<<<<<<<<<<<<<<<<<<<<<<<<<<<<<<<<<<<<<<<<<


                                            -------------------------------------------
                                                      TRANSPORT STEP NO.   97
                                            -------------------------------------------

 TOTAL ELAPSED TIME SINCE BEGINNING OF SIMULATION =   14389.63    D   
 .....................................................................

                     CUMMULATIVE MASS BUDGETS AT END OF TRANSPORT STEP   97, TIME STEP    1, STRESS PERIOD    2
                     ------------------------------------------------------------------------------------------

                                                             IN                           OUT
                                                      ----------------             ----------------
                               CONSTANT CONCENTRATION:    0.000000                    0.000000    
                                        CONSTANT HEAD:    0.000000                   -790296.1    
                                                WELLS:   0.7299993E+08                0.000000    
                               1ST/0TH ORDER REACTION:    0.000000                    0.000000    
                                MASS STORAGE (SOLUTE):   0.4590484E+08              -0.9491453E+08
                                MASS STORAGE (SORBED):   0.1846444E+08              -0.4115929E+08
                            ---------------------------------------------------------------------------
                                              [TOTAL]:   0.1373692E+09 KG           -0.1368641E+09 KG  

                                                          NET (IN - OUT):    505088.0    
                                                   DISCREPANCY (PERCENT):   0.3683637    
     1 CALLS TO GCG PACKAGE FOR TRANSPORT TIME STEP  98 IN FLOW TIME STEP   1 STRESS PERIOD   2
     3 TOTAL ITERATIONS



 >>>>>>>>>>>>>>>>>>>>>>>>>>>>>>>>>>>>>>>>>>>>>>>>>>>>>>>FOR COMPONENT NO. 01<<<<<<<<<<<<<<<<<<<<<<<<<<<<<<<<<<<<<<<<<<<<<<<<<<<<<<<


                                            -------------------------------------------
                                                      TRANSPORT STEP NO.   98
                                            -------------------------------------------

 TOTAL ELAPSED TIME SINCE BEGINNING OF SIMULATION =   14462.71    D   
 .....................................................................

                     CUMMULATIVE MASS BUDGETS AT END OF TRANSPORT STEP   98, TIME STEP    1, STRESS PERIOD    2
                     ------------------------------------------------------------------------------------------

                                                             IN                           OUT
                                                      ----------------             ----------------
                               CONSTANT CONCENTRATION:    0.000000                    0.000000    
                                        CONSTANT HEAD:    0.000000                   -847043.3    
                                                WELLS:   0.7299993E+08                0.000000    
                               1ST/0TH ORDER REACTION:    0.000000                    0.000000    
                                MASS STORAGE (SOLUTE):   0.4631990E+08              -0.9528342E+08
                                MASS STORAGE (SORBED):   0.1864215E+08              -0.4132507E+08
                            ---------------------------------------------------------------------------
                                              [TOTAL]:   0.1379620E+09 KG           -0.1374555E+09 KG  

                                                          NET (IN - OUT):    506448.0    
                                                   DISCREPANCY (PERCENT):   0.3677675    
     1 CALLS TO GCG PACKAGE FOR TRANSPORT TIME STEP  99 IN FLOW TIME STEP   1 STRESS PERIOD   2
     3 TOTAL ITERATIONS



 >>>>>>>>>>>>>>>>>>>>>>>>>>>>>>>>>>>>>>>>>>>>>>>>>>>>>>>FOR COMPONENT NO. 01<<<<<<<<<<<<<<<<<<<<<<<<<<<<<<<<<<<<<<<<<<<<<<<<<<<<<<<


                                            -------------------------------------------
                                                      TRANSPORT STEP NO.   99
                                            -------------------------------------------

 TOTAL ELAPSED TIME SINCE BEGINNING OF SIMULATION =   14535.80    D   
 .....................................................................

                     CUMMULATIVE MASS BUDGETS AT END OF TRANSPORT STEP   99, TIME STEP    1, STRESS PERIOD    2
                     ------------------------------------------------------------------------------------------

                                                             IN                           OUT
                                                      ----------------             ----------------
                               CONSTANT CONCENTRATION:    0.000000                    0.000000    
                                        CONSTANT HEAD:    0.000000                   -906783.6    
                                                WELLS:   0.7299993E+08                0.000000    
                               1ST/0TH ORDER REACTION:    0.000000                    0.000000    
                                MASS STORAGE (SOLUTE):   0.4673396E+08              -0.9564938E+08
                                MASS STORAGE (SORBED):   0.1881957E+08              -0.4148948E+08
                            ---------------------------------------------------------------------------
                                              [TOTAL]:   0.1385535E+09 KG           -0.1380456E+09 KG  

                                                          NET (IN - OUT):    507808.0    
                                                   DISCREPANCY (PERCENT):   0.3671798    
     1 CALLS TO GCG PACKAGE FOR TRANSPORT TIME STEP 100 IN FLOW TIME STEP   1 STRESS PERIOD   2
     3 TOTAL ITERATIONS
  MAXIMUM CONCENTRATION CHANGES FOR EACH ITERATION:
  MAX. CHANGE LAYER,ROW,COL MAX. CHANGE LAYER,ROW,COL MAX. CHANGE LAYER,ROW,COL MAX. CHANGE LAYER,ROW,COL MAX. CHANGE LAYER,ROW,COL
 ------------------------------------------------------------------------------------------------------------------------------------
   0.2963E-01 (  1, 26, 81)  0.2445E-03 (  1, 27, 80)  0.1580E-05 (  1, 28, 79)



 >>>>>>>>>>>>>>>>>>>>>>>>>>>>>>>>>>>>>>>>>>>>>>>>>>>>>>>FOR COMPONENT NO. 01<<<<<<<<<<<<<<<<<<<<<<<<<<<<<<<<<<<<<<<<<<<<<<<<<<<<<<<


                                            -------------------------------------------
                                                      TRANSPORT STEP NO.  100
                                            -------------------------------------------

 TOTAL ELAPSED TIME SINCE BEGINNING OF SIMULATION =   14600.00    D   
 .....................................................................

                     CUMMULATIVE MASS BUDGETS AT END OF TRANSPORT STEP  100, TIME STEP    1, STRESS PERIOD    2
                     ------------------------------------------------------------------------------------------

                                                             IN                           OUT
                                                      ----------------             ----------------
                               CONSTANT CONCENTRATION:    0.000000                    0.000000    
                                        CONSTANT HEAD:    0.000000                   -961655.4    
                                                WELLS:   0.7299993E+08                0.000000    
                               1ST/0TH ORDER REACTION:    0.000000                    0.000000    
                                MASS STORAGE (SOLUTE):   0.4709675E+08              -0.9596847E+08
                                MASS STORAGE (SORBED):   0.1897512E+08              -0.4163282E+08
                            ---------------------------------------------------------------------------
                                              [TOTAL]:   0.1390718E+09 KG           -0.1385629E+09 KG  

                                                          NET (IN - OUT):    508848.0    
                                                   DISCREPANCY (PERCENT):   0.3665593    
  ----- 
 | M T |
 | 3 D | END OF MODEL OUTPUT
  ----- 
