 LISTING FILE: binary_files_mt.list
                         UNIT  16

 OPENING mt3d_link.ftl
 FILE TYPE:FTL   UNIT  10

 OPENING binary_files_mt.btn
 FILE TYPE:BTN   UNIT  31

 OPENING binary_files_mt.adv
 FILE TYPE:ADV   UNIT  32

 OPENING binary_files_mt.dsp
 FILE TYPE:DSP   UNIT  33

 OPENING binary_files_mt.rct
 FILE TYPE:RCT   UNIT  36

 OPENING binary_files_mt.ssm
 FILE TYPE:SSM   UNIT  34

 OPENING binary_files_mt.gcg
 FILE TYPE:GCG   UNIT  35

                              +++++++++++++++++++++++++++++++++++++++++++++++++++++++++++++++++++++++
                              +                                                                     +
                              +                               MT3DMS                                +
                              +             A Modular 3D Multi-Species Transport Model              +
                              +    For Simulation of Advection, Dispersion and Chemical Reactions   +
                              +                of Contaminants in Groundwater Systems               +
                              +                                                                     +
                              +++++++++++++++++++++++++++++++++++++++++++++++++++++++++++++++++++++++

  ----- 
 | M T | ## BTN for MT3DMS, generated by Flopy.                                          
 | 3 D | ##                                                                              
  ----- 
 THE TRANSPORT MODEL CONSISTS OF     1 LAYER(S)   41 ROW(S)   81 COLUMN(S)
 NUMBER OF STRESS PERIOD(S) FOR TRANSPORT SIMULATION =   50
 NUMBER OF ALL COMPONENTS INCLUDED IN SIMULATION =    1
 NUMBER OF MOBILE COMPONENTS INCLUDED IN SIMULATION =    1
 UNIT FOR TIME IS D   ;  UNIT FOR LENGTH IS M   ;  UNIT FOR MASS IS KG  
 OPTIONAL PACKAGES INCLUDED IN CURRENT SIMULATION:
  o ADV   ON UNIT 32
  o DSP   ON UNIT 33
  o SSM   ON UNIT 34
  o RCT   ON UNIT 36
  o GCG   ON UNIT 35

 BTN5 -- BASIC TRANSPORT PACKAGE, VERSION 5, FEBRUARY 2010, INPUT READ FROM UNIT 31
      53380 ELEMENTS OF THE  X ARRAY USED BY THE BTN PACKAGE
       3322 ELEMENTS OF THE IX ARRAY USED BY THE BTN PACKAGE

 FMI5 -- FLOW MODEL INTERFACE PACKAGE, VERSION 5, FEBRUARY 2010, INPUT READ FROM UNIT 10
 FLOW MODEL IS STEADY-STATE
 FLOW MODEL CONTAINS CONSTANT-HEAD CELLS

 ADV5 -- ADVECTION PACKAGE, VERSION 5, FEBRUARY 2010, INPUT READ FROM UNIT 32
 ADVECTION IS SOLVED WITH THE ULTIMATE SCHEME
 COURANT NUMBER ALLOWED IN SOLVING THE ADVECTION TERM = 0.500    
          0 ELEMENTS OF THE  X ARRAY USED BY THE ADV PACKAGE
          0 ELEMENTS OF THE IX ARRAY USED BY THE ADV PACKAGE

 DSP5 -- DISPERSION PACKAGE, VERSION 5, FEBRUARY 2010, INPUT READ FROM UNIT 33
      36533 ELEMENTS OF THE  X ARRAY USED BY THE DSP PACKAGE
          0 ELEMENTS OF THE IX ARRAY USED BY THE DSP PACKAGE

 SSM5 -- SINK & SOURCE MIXING PACKAGE, VERSION 5, FEBRUARY 2010, INPUT READ FROM UNIT 34
 HEADER LINE OF THE SSM PACKAGE INPUT FILE:
  T F F F F F F F F F F F F F F F                                                                                                                                                                        
 MAJOR STRESS COMPONENTS PRESENT IN THE FLOW MODEL:
  o WELL [WEL]
 MAXIMUM NUMBER OF POINT SINKS/SOURCES =      83
       1079 ELEMENTS OF THE  X ARRAY USED BY THE SSM PACKAGE
          0 ELEMENTS OF THE IX ARRAY BY THE SSM PACKAGE

 RCT5 -- CHEMICAL REACTION PACKAGE, VERSION 5, FEBRUARY 2010, INPUT READ FROM UNIT 36
 TYPE OF SORPTION SELECTED IS [FREUNDLICH]
 FIRST-ORDER IRREVERSIBLE REACTION [RADIOACTIVE DECAY OR BIODEGRADATION] IS SIMULATED
 REACTION COEFFICIENTS ASSIGNED CELL-BY-CELL
 INITIAL SORBED/IMMOBILE PHASE CONCENTRATION ASSIGNED BY DEFAULT
      16605 ELEMENTS OF THE  X ARRAY USED BY THE RCT PACKAGE
          0 ELEMENTS OF THE IX ARRAY USED BY THE RCT PACKAGE

 GCG5 -- GENERALIZED CONJUGATE GRADIENT SOLVER PACKAGE, VERSION 5, FEBRUARY 2010 INPUT READ FROM UNIT 35
 MAXIMUM OF    1 OUTER ITERATIONS
        AND   50 INNER ITERATIONS ALLOWED FOR CLOSURE
 THE PRECONDITIONING TYPE SELECTED IS MODIFIED INCOMPLETE CHOLESKY (MIC).
 DISPERSION CROSS TERMS LUMPED INTO RIGHT-HAND-SIDE
      73112 ELEMENTS OF THE  X ARRAY USED BY THE GCG PACKAGE
        150 ELEMENTS OF THE IX ARRAY USED BY THE GCG PACKAGE

 ..........................................
 ELEMENTS OF THE  X ARRAY USED =    180710
 ELEMENTS OF THE IX ARRAY USED =      3473
 ..........................................

 LAYER NUMBER  AQUIFER TYPE
 ------------  ------------
       1            0
                                       WIDTH ALONG ROWS (DELR)  =   31.25000    
                                       WIDTH ALONG COLS (DELC)  =   31.25000    
                                       TOP ELEV. OF 1ST LAYER   =   0.000000    
                                       CELL THICKNESS (DZ)      =   50.00000     FOR LAYER  1
                                       POROSITY                 =  0.3000000     FOR LAYER  1
                                       CONCN. BOUNDARY ARRAY    =              1 FOR LAYER  1
                                       INITIAL CONC.: COMP.  01 =   0.000000     FOR LAYER  1

 VALUE INDICATING INACTIVE CONCENTRATION CELLS =   0.1000000E+31
 MINIMUM SATURATED THICKNESS [THKMIN] ALLOWED =  0.0100 OF TOTAL CELL THICKNESS


 OUTPUT CONTROL OPTIONS
 ----------------------

 DO NOT PRINT CELL CONCENTRATION
 DO NOT PRINT PARTICLE NUMBER IN EACH CELL
 DO NOT PRINT RETARDATION FACTOR
 DO NOT PRINT DISPERSION COEFFICIENT
 SAVE DISSOLVED PHASE CONCENTRATIONS IN UNFORMATTED FILES [MT3Dnnn.UCN]
  FOR EACH SPECIES ON UNITS 201 AND ABOVE
 SAVE SORBED/IMMOBILE PHASE CONCENTRATIONS IN UNFORMATTED FILES [MT3DnnnS.UCN]
  FOR EACH SPECIES ON UNITS 301 AND ABOVE, IF SORPTION/MASS TRANSFER SIMULATED

 SIMULATION RESULTS ARE SAVED EVERY   1 TRANSPORT STEP(S)

 NUMBER OF OBSERVATION POINTS =   20
 SAVE CONCENTRATIONS AT OBSERVATION POINTS IN FILES [MT3Dnnn.OBS]
  FOR EACH SPECIES ON UNITS 401 AND ABOVE, EVERY  1 TRANSPORT STEPS
 LOCATION OF OBSERVATION POINTS
 ..............................
 NUMBER  LAYER   ROW   COLUMN
   1        1     32     50
   2        1     19     57
   3        1     21     49
   4        1     28     77
   5        1     25     61
   6        1     13     32
   7        1     20     70
   8        1     31     33
   9        1     34     39
  10        1     19     66
  11        1     23     75
  12        1     22     39
  13        1     35     56
  14        1     18     45
  15        1      6     67
  16        1     31     60
  17        1      9     53
  18        1     22     61
  19        1     12     41
  20        1     32     41

 SAVE ONE-LINE SUMMARY OF MASS BUDGETS IN FILES [MT3Dnnn.MAS]
  FOR EACH SPECIES ON UNITS 601 AND ABOVE, EVERY  1 TRANSPORT STEPS

 MAXIMUM LENGTH ALONG THE X (J) AXIS =   2531.250    
 MAXIMUM LENGTH ALONG THE Y (I) AXIS =   1281.250    
 MAXIMUM LENGTH ALONG THE Z (K) AXIS =   50.00000    


 ADVECTION SOLUTION OPTIONS
 --------------------------

 ADVECTION IS SOLVED WITH THE ULTIMATE SCHEME
 COURANT NUMBER ALLOWED IN SOLVING THE ADVECTION TERM = 0.500    


 DISPERSION INPUT PARAMETERS
 ---------------------------

                                       LONG. DISPERSIVITY (AL)  =   35.00000     FOR LAYER  1
                                       H. TRANS./LONG. DISP.    =  0.3000000    
                                       V. TRANS./LONG. DISP.    =  0.3000000E-01
                                       DIFFUSION COEFFICIENT    =  0.1000000E-08


 SORPTION AND 1ST/0TH ORDER REACTION PARAMETERS
 ----------------------------------------------

                                       BULK DENSITY (RHOB)      =   1.587000     FOR LAYER  1
                                       1ST SORP. COEF. COMP. 01 =  0.1000000     FOR LAYER  1
                                       2ND SORP. COEF. COMP. 01 =  0.9000000     FOR LAYER  1
                                       SOLUTE RXN RATE: COMP 01 =   0.000000     FOR LAYER  1
                                       SORBED RXN RATE: COMP 01 =   0.000000     FOR LAYER  1

 MAXIMUM STEPSIZE WHICH MEETS STABILITY CRITERION OF THE REACTION TERM
 = 0.1000E+31 AT K=   0, I=   0, J=   0



                                               SOLUTION BY THE GENERALIZED CONJUGATE GRADIENT METHOD
                                               -----------------------------------------------------
                                     MAXIMUM OUTER ITERATIONS ALLOWED FOR CLOSURE =        1
                                     MAXIMUM INNER ITERATIONS ALLOWED FOR CLOSURE =       50
                                                    PRECONDITIONING TYPE SELECTED =    3
                                                           ACCELERATION PARAMETER =     1.0000    
                                       CONCENTRATION CHANGE CRITERION FOR CLOSURE =    0.10000E-04
                                       GCG CONCENTRATION CHANGE PRINTOUT INTERVAL =      999


                                   ++++++++++++++++++++++++++++++++++++++++++++++++++++++++++++++
                                                       STRESS PERIOD NO.  001
                                   ++++++++++++++++++++++++++++++++++++++++++++++++++++++++++++++


 LENGTH OF CURRENT STRESS PERIOD =   730.0000    
 NUMBER OF TIME STEPS FOR CURRENT STRESS PERIOD =    1
 TIME STEP MULTIPLIER USED IN FLOW SOLUTION =   1.000000    

 ***Type of Transport Simulation is TRANSIENT

 USER-SPECIFIED TRANSPORT STEPSIZE =   0.000000    D   
 MAXIMUM NUMBER OF TRANSPORT STEPS ALLOWED  IN ONE FLOW TIME STEP =     50000
 MULTIPLIER FOR SUCCESSIVE TRANSPORT STEPS  [USED IN IMPLICIT SCHEMES] =     1.000
 MAXIMUM TRANSPORT STEP SIZE  [USED IN IMPLICIT SCHEMES] =   0.000000    D   

       NO    LAYER   ROW   COLUMN   CONCENTRATION       TYPE            COMPONENT
       1       1      16      26       10000.00         WELL                1


                                          ================================================
                                                         TIME STEP NO.  001
                                          ================================================

 FROM TIME =   0.0000     TO    730.00    


                    "THKSAT          " FLOW TERMS FOR TIME STEP  1, STRESS PERIOD  1 READ UNFORMATTED ON UNIT 10
                    --------------------------------------------------------------------------------------------

                    "QXX             " FLOW TERMS FOR TIME STEP  1, STRESS PERIOD  1 READ UNFORMATTED ON UNIT 10
                    --------------------------------------------------------------------------------------------

                    "QYY             " FLOW TERMS FOR TIME STEP  1, STRESS PERIOD  1 READ UNFORMATTED ON UNIT 10
                    --------------------------------------------------------------------------------------------

 MAXIMUM STEPSIZE DURING WHICH ANY PARTICLE CANNOT MOVE MORE THAN ONE CELL
 =  152.6    (WHEN MIN. R.F.=1)  AT K=   1, I=  20, J=  38

 MAXIMUM STEPSIZE WHICH MEETS STABILITY CRITERION OF THE ADVECTION TERM
 (FOR PURE FINITE-DIFFERENCE OPTION, MIXELM=0) 
 =  119.6    (WHEN MIN. R.F.=1)  AT K=   1, I=  16, J=  26

                    "CNH             " FLOW TERMS FOR TIME STEP  1, STRESS PERIOD  1 READ UNFORMATTED ON UNIT 10
                    --------------------------------------------------------------------------------------------

                    "WEL             " FLOW TERMS FOR TIME STEP  1, STRESS PERIOD  1 READ UNFORMATTED ON UNIT 10
                    --------------------------------------------------------------------------------------------


 TOTAL NUMBER OF POINT SOURCES/SINKS PRESENT IN THE FLOW MODEL =    83

 MAXIMUM STEPSIZE WHICH MEETS STABILITY CRITERION OF THE SINK & SOURCE TERM
 =  146.5    (WHEN MIN. R.F.=1)  AT K=   1, I=  16, J=  26

 MAXIMUM STEPSIZE WHICH MEETS STABILITY CRITERION OF THE DISPERSION TERM
 =  51.85    (WHEN MIN. R.F.=1)  AT K=   1, I=  16, J=  26


     1 CALLS TO GCG PACKAGE FOR TRANSPORT TIME STEP   1 IN FLOW TIME STEP   1 STRESS PERIOD   1
     6 TOTAL ITERATIONS



 >>>>>>>>>>>>>>>>>>>>>>>>>>>>>>>>>>>>>>>>>>>>>>>>>>>>>>>FOR COMPONENT NO. 01<<<<<<<<<<<<<<<<<<<<<<<<<<<<<<<<<<<<<<<<<<<<<<<<<<<<<<<


                                            -------------------------------------------
                                                      TRANSPORT STEP NO.    1
                                            -------------------------------------------

 TOTAL ELAPSED TIME SINCE BEGINNING OF SIMULATION =   59.81123    D   
 .....................................................................

                     CUMMULATIVE MASS BUDGETS AT END OF TRANSPORT STEP    1, TIME STEP    1, STRESS PERIOD    1
                     ------------------------------------------------------------------------------------------

                                                             IN                           OUT
                                                      ----------------             ----------------
                               CONSTANT CONCENTRATION:    0.000000                    0.000000    
                                        CONSTANT HEAD:    0.000000                  -0.1424008E-29
                                                WELLS:   0.5981122E+08                0.000000    
                               1ST/0TH ORDER REACTION:    0.000000                    0.000000    
                                MASS STORAGE (SOLUTE):    0.000000                  -0.5981122E+08
                                MASS STORAGE (SORBED):    0.000000                  -0.1494253E+08
                            ---------------------------------------------------------------------------
                                              [TOTAL]:   0.5981122E+08 KG           -0.7475374E+08 KG  

                                                          NET (IN - OUT):  -0.1494252E+08
                                                   DISCREPANCY (PERCENT):   -22.20864    
     1 CALLS TO GCG PACKAGE FOR TRANSPORT TIME STEP   2 IN FLOW TIME STEP   1 STRESS PERIOD   1
     4 TOTAL ITERATIONS



 >>>>>>>>>>>>>>>>>>>>>>>>>>>>>>>>>>>>>>>>>>>>>>>>>>>>>>>FOR COMPONENT NO. 01<<<<<<<<<<<<<<<<<<<<<<<<<<<<<<<<<<<<<<<<<<<<<<<<<<<<<<<


                                            -------------------------------------------
                                                      TRANSPORT STEP NO.    2
                                            -------------------------------------------

 TOTAL ELAPSED TIME SINCE BEGINNING OF SIMULATION =   119.6225    D   
 .....................................................................

                     CUMMULATIVE MASS BUDGETS AT END OF TRANSPORT STEP    2, TIME STEP    1, STRESS PERIOD    1
                     ------------------------------------------------------------------------------------------

                                                             IN                           OUT
                                                      ----------------             ----------------
                               CONSTANT CONCENTRATION:    0.000000                    0.000000    
                                        CONSTANT HEAD:    0.000000                  -0.2849530E-29
                                                WELLS:   0.1196224E+09                0.000000    
                               1ST/0TH ORDER REACTION:    0.000000                    0.000000    
                                MASS STORAGE (SOLUTE):   0.3091735E-36              -0.1064098E+09
                                MASS STORAGE (SORBED):   0.1190877E-32              -0.2688867E+08
                            ---------------------------------------------------------------------------
                                              [TOTAL]:   0.1196224E+09 KG           -0.1332985E+09 KG  

                                                          NET (IN - OUT):  -0.1367602E+08
                                                   DISCREPANCY (PERCENT):   -10.81446    
     1 CALLS TO GCG PACKAGE FOR TRANSPORT TIME STEP   3 IN FLOW TIME STEP   1 STRESS PERIOD   1
     4 TOTAL ITERATIONS



 >>>>>>>>>>>>>>>>>>>>>>>>>>>>>>>>>>>>>>>>>>>>>>>>>>>>>>>FOR COMPONENT NO. 01<<<<<<<<<<<<<<<<<<<<<<<<<<<<<<<<<<<<<<<<<<<<<<<<<<<<<<<


                                            -------------------------------------------
                                                      TRANSPORT STEP NO.    3
                                            -------------------------------------------

 TOTAL ELAPSED TIME SINCE BEGINNING OF SIMULATION =   179.4337    D   
 .....................................................................

                     CUMMULATIVE MASS BUDGETS AT END OF TRANSPORT STEP    3, TIME STEP    1, STRESS PERIOD    1
                     ------------------------------------------------------------------------------------------

                                                             IN                           OUT
                                                      ----------------             ----------------
                               CONSTANT CONCENTRATION:    0.000000                    0.000000    
                                        CONSTANT HEAD:    0.000000                  -0.4276568E-29
                                                WELLS:   0.1794337E+09                0.000000    
                               1ST/0TH ORDER REACTION:    0.000000                    0.000000    
                                MASS STORAGE (SOLUTE):   0.5531539E-36              -0.1531501E+09
                                MASS STORAGE (SORBED):   0.2504902E-32              -0.3895854E+08
                            ---------------------------------------------------------------------------
                                              [TOTAL]:   0.1794337E+09 KG           -0.1921086E+09 KG  

                                                          NET (IN - OUT):  -0.1267494E+08
                                                   DISCREPANCY (PERCENT):   -6.822881    
     1 CALLS TO GCG PACKAGE FOR TRANSPORT TIME STEP   4 IN FLOW TIME STEP   1 STRESS PERIOD   1
     4 TOTAL ITERATIONS



 >>>>>>>>>>>>>>>>>>>>>>>>>>>>>>>>>>>>>>>>>>>>>>>>>>>>>>>FOR COMPONENT NO. 01<<<<<<<<<<<<<<<<<<<<<<<<<<<<<<<<<<<<<<<<<<<<<<<<<<<<<<<


                                            -------------------------------------------
                                                      TRANSPORT STEP NO.    4
                                            -------------------------------------------

 TOTAL ELAPSED TIME SINCE BEGINNING OF SIMULATION =   239.2449    D   
 .....................................................................

                     CUMMULATIVE MASS BUDGETS AT END OF TRANSPORT STEP    4, TIME STEP    1, STRESS PERIOD    1
                     ------------------------------------------------------------------------------------------

                                                             IN                           OUT
                                                      ----------------             ----------------
                               CONSTANT CONCENTRATION:    0.000000                    0.000000    
                                        CONSTANT HEAD:    0.000000                  -0.5705124E-29
                                                WELLS:   0.2392449E+09                0.000000    
                               1ST/0TH ORDER REACTION:    0.000000                    0.000000    
                                MASS STORAGE (SOLUTE):   0.9836407E-36              -0.1999496E+09
                                MASS STORAGE (SORBED):   0.4595441E-32              -0.5109132E+08
                            ---------------------------------------------------------------------------
                                              [TOTAL]:   0.2392449E+09 KG           -0.2510409E+09 KG  

                                                          NET (IN - OUT):  -0.1179603E+08
                                                   DISCREPANCY (PERCENT):   -4.811900    
     1 CALLS TO GCG PACKAGE FOR TRANSPORT TIME STEP   5 IN FLOW TIME STEP   1 STRESS PERIOD   1
     4 TOTAL ITERATIONS



 >>>>>>>>>>>>>>>>>>>>>>>>>>>>>>>>>>>>>>>>>>>>>>>>>>>>>>>FOR COMPONENT NO. 01<<<<<<<<<<<<<<<<<<<<<<<<<<<<<<<<<<<<<<<<<<<<<<<<<<<<<<<


                                            -------------------------------------------
                                                      TRANSPORT STEP NO.    5
                                            -------------------------------------------

 TOTAL ELAPSED TIME SINCE BEGINNING OF SIMULATION =   299.0561    D   
 .....................................................................

                     CUMMULATIVE MASS BUDGETS AT END OF TRANSPORT STEP    5, TIME STEP    1, STRESS PERIOD    1
                     ------------------------------------------------------------------------------------------

                                                             IN                           OUT
                                                      ----------------             ----------------
                               CONSTANT CONCENTRATION:    0.000000                    0.000000    
                                        CONSTANT HEAD:    0.000000                  -0.7135199E-29
                                                WELLS:   0.2990561E+09                0.000000    
                               1ST/0TH ORDER REACTION:    0.000000                    0.000000    
                                MASS STORAGE (SOLUTE):   0.1536291E-35              -0.2467818E+09
                                MASS STORAGE (SORBED):   0.7264854E-32              -0.6326414E+08
                            ---------------------------------------------------------------------------
                                              [TOTAL]:   0.2990561E+09 KG           -0.3100460E+09 KG  

                                                          NET (IN - OUT):  -0.1098982E+08
                                                   DISCREPANCY (PERCENT):   -3.608533    
     1 CALLS TO GCG PACKAGE FOR TRANSPORT TIME STEP   6 IN FLOW TIME STEP   1 STRESS PERIOD   1
     4 TOTAL ITERATIONS



 >>>>>>>>>>>>>>>>>>>>>>>>>>>>>>>>>>>>>>>>>>>>>>>>>>>>>>>FOR COMPONENT NO. 01<<<<<<<<<<<<<<<<<<<<<<<<<<<<<<<<<<<<<<<<<<<<<<<<<<<<<<<


                                            -------------------------------------------
                                                      TRANSPORT STEP NO.    6
                                            -------------------------------------------

 TOTAL ELAPSED TIME SINCE BEGINNING OF SIMULATION =   358.8673    D   
 .....................................................................

                     CUMMULATIVE MASS BUDGETS AT END OF TRANSPORT STEP    6, TIME STEP    1, STRESS PERIOD    1
                     ------------------------------------------------------------------------------------------

                                                             IN                           OUT
                                                      ----------------             ----------------
                               CONSTANT CONCENTRATION:    0.000000                    0.000000    
                                        CONSTANT HEAD:    0.000000                  -0.8566794E-29
                                                WELLS:   0.3588674E+09                0.000000    
                               1ST/0TH ORDER REACTION:    0.000000                    0.000000    
                                MASS STORAGE (SOLUTE):   0.1852813E-35              -0.2936332E+09
                                MASS STORAGE (SORBED):   0.8682674E-32              -0.7546690E+08
                            ---------------------------------------------------------------------------
                                              [TOTAL]:   0.3588674E+09 KG           -0.3691001E+09 KG  

                                                          NET (IN - OUT):  -0.1023274E+08
                                                   DISCREPANCY (PERCENT):   -2.811317    
     1 CALLS TO GCG PACKAGE FOR TRANSPORT TIME STEP   7 IN FLOW TIME STEP   1 STRESS PERIOD   1
     4 TOTAL ITERATIONS



 >>>>>>>>>>>>>>>>>>>>>>>>>>>>>>>>>>>>>>>>>>>>>>>>>>>>>>>FOR COMPONENT NO. 01<<<<<<<<<<<<<<<<<<<<<<<<<<<<<<<<<<<<<<<<<<<<<<<<<<<<<<<


                                            -------------------------------------------
                                                      TRANSPORT STEP NO.    7
                                            -------------------------------------------

 TOTAL ELAPSED TIME SINCE BEGINNING OF SIMULATION =   418.6786    D   
 .....................................................................

                     CUMMULATIVE MASS BUDGETS AT END OF TRANSPORT STEP    7, TIME STEP    1, STRESS PERIOD    1
                     ------------------------------------------------------------------------------------------

                                                             IN                           OUT
                                                      ----------------             ----------------
                               CONSTANT CONCENTRATION:    0.000000                    0.000000    
                                        CONSTANT HEAD:    0.000000                  -0.9999913E-29
                                                WELLS:   0.4186786E+09                0.000000    
                               1ST/0TH ORDER REACTION:    0.000000                    0.000000    
                                MASS STORAGE (SOLUTE):   0.2215237E-35              -0.3404962E+09
                                MASS STORAGE (SORBED):   0.1025381E-31              -0.8769343E+08
                            ---------------------------------------------------------------------------
                                              [TOTAL]:   0.4186786E+09 KG           -0.4281897E+09 KG  

                                                          NET (IN - OUT):   -9511072.    
                                                   DISCREPANCY (PERCENT):   -2.246175    
     1 CALLS TO GCG PACKAGE FOR TRANSPORT TIME STEP   8 IN FLOW TIME STEP   1 STRESS PERIOD   1
     4 TOTAL ITERATIONS



 >>>>>>>>>>>>>>>>>>>>>>>>>>>>>>>>>>>>>>>>>>>>>>>>>>>>>>>FOR COMPONENT NO. 01<<<<<<<<<<<<<<<<<<<<<<<<<<<<<<<<<<<<<<<<<<<<<<<<<<<<<<<


                                            -------------------------------------------
                                                      TRANSPORT STEP NO.    8
                                            -------------------------------------------

 TOTAL ELAPSED TIME SINCE BEGINNING OF SIMULATION =   478.4898    D   
 .....................................................................

                     CUMMULATIVE MASS BUDGETS AT END OF TRANSPORT STEP    8, TIME STEP    1, STRESS PERIOD    1
                     ------------------------------------------------------------------------------------------

                                                             IN                           OUT
                                                      ----------------             ----------------
                               CONSTANT CONCENTRATION:    0.000000                    0.000000    
                                        CONSTANT HEAD:    0.000000                  -0.1143456E-28
                                                WELLS:   0.4784898E+09                0.000000    
                               1ST/0TH ORDER REACTION:    0.000000                    0.000000    
                                MASS STORAGE (SOLUTE):   0.2630374E-35              -0.3873667E+09
                                MASS STORAGE (SORBED):   0.1203264E-31              -0.9993933E+08
                            ---------------------------------------------------------------------------
                                              [TOTAL]:   0.4784898E+09 KG           -0.4873060E+09 KG  

                                                          NET (IN - OUT):   -8816224.    
                                                   DISCREPANCY (PERCENT):   -1.825691    
     1 CALLS TO GCG PACKAGE FOR TRANSPORT TIME STEP   9 IN FLOW TIME STEP   1 STRESS PERIOD   1
     4 TOTAL ITERATIONS



 >>>>>>>>>>>>>>>>>>>>>>>>>>>>>>>>>>>>>>>>>>>>>>>>>>>>>>>FOR COMPONENT NO. 01<<<<<<<<<<<<<<<<<<<<<<<<<<<<<<<<<<<<<<<<<<<<<<<<<<<<<<<


                                            -------------------------------------------
                                                      TRANSPORT STEP NO.    9
                                            -------------------------------------------

 TOTAL ELAPSED TIME SINCE BEGINNING OF SIMULATION =   538.3010    D   
 .....................................................................

                     CUMMULATIVE MASS BUDGETS AT END OF TRANSPORT STEP    9, TIME STEP    1, STRESS PERIOD    1
                     ------------------------------------------------------------------------------------------

                                                             IN                           OUT
                                                      ----------------             ----------------
                               CONSTANT CONCENTRATION:    0.000000                    0.000000    
                                        CONSTANT HEAD:    0.000000                  -0.1287073E-28
                                                WELLS:   0.5383011E+09                0.000000    
                               1ST/0TH ORDER REACTION:    0.000000                    0.000000    
                                MASS STORAGE (SOLUTE):   0.3062505E-35              -0.4342418E+09
                                MASS STORAGE (SORBED):   0.1383842E-31              -0.1122019E+09
                            ---------------------------------------------------------------------------
                                              [TOTAL]:   0.5383011E+09 KG           -0.5464436E+09 KG  

                                                          NET (IN - OUT):   -8142592.    
                                                   DISCREPANCY (PERCENT):   -1.501292    
     1 CALLS TO GCG PACKAGE FOR TRANSPORT TIME STEP  10 IN FLOW TIME STEP   1 STRESS PERIOD   1
     4 TOTAL ITERATIONS



 >>>>>>>>>>>>>>>>>>>>>>>>>>>>>>>>>>>>>>>>>>>>>>>>>>>>>>>FOR COMPONENT NO. 01<<<<<<<<<<<<<<<<<<<<<<<<<<<<<<<<<<<<<<<<<<<<<<<<<<<<<<<


                                            -------------------------------------------
                                                      TRANSPORT STEP NO.   10
                                            -------------------------------------------

 TOTAL ELAPSED TIME SINCE BEGINNING OF SIMULATION =   598.1122    D   
 .....................................................................

                     CUMMULATIVE MASS BUDGETS AT END OF TRANSPORT STEP   10, TIME STEP    1, STRESS PERIOD    1
                     ------------------------------------------------------------------------------------------

                                                             IN                           OUT
                                                      ----------------             ----------------
                               CONSTANT CONCENTRATION:    0.000000                    0.000000    
                                        CONSTANT HEAD:    0.000000                  -0.1430843E-28
                                                WELLS:   0.5981123E+09                0.000000    
                               1ST/0TH ORDER REACTION:    0.000000                    0.000000    
                                MASS STORAGE (SOLUTE):   0.3525036E-35              -0.4811180E+09
                                MASS STORAGE (SORBED):   0.1583972E-31              -0.1244797E+09
                            ---------------------------------------------------------------------------
                                              [TOTAL]:   0.5981123E+09 KG           -0.6055977E+09 KG  

                                                          NET (IN - OUT):   -7485440.    
                                                   DISCREPANCY (PERCENT):   -1.243728    
     1 CALLS TO GCG PACKAGE FOR TRANSPORT TIME STEP  11 IN FLOW TIME STEP   1 STRESS PERIOD   1
     4 TOTAL ITERATIONS



 >>>>>>>>>>>>>>>>>>>>>>>>>>>>>>>>>>>>>>>>>>>>>>>>>>>>>>>FOR COMPONENT NO. 01<<<<<<<<<<<<<<<<<<<<<<<<<<<<<<<<<<<<<<<<<<<<<<<<<<<<<<<


                                            -------------------------------------------
                                                      TRANSPORT STEP NO.   11
                                            -------------------------------------------

 TOTAL ELAPSED TIME SINCE BEGINNING OF SIMULATION =   657.9235    D   
 .....................................................................

                     CUMMULATIVE MASS BUDGETS AT END OF TRANSPORT STEP   11, TIME STEP    1, STRESS PERIOD    1
                     ------------------------------------------------------------------------------------------

                                                             IN                           OUT
                                                      ----------------             ----------------
                               CONSTANT CONCENTRATION:    0.000000                    0.000000    
                                        CONSTANT HEAD:    0.000000                  -0.1574766E-28
                                                WELLS:   0.6579235E+09                0.000000    
                               1ST/0TH ORDER REACTION:    0.000000                    0.000000    
                                MASS STORAGE (SOLUTE):   0.3845050E-35              -0.5279962E+09
                                MASS STORAGE (SORBED):   0.1713960E-31              -0.1367702E+09
                            ---------------------------------------------------------------------------
                                              [TOTAL]:   0.6579235E+09 KG           -0.6647664E+09 KG  

                                                          NET (IN - OUT):   -6842944.    
                                                   DISCREPANCY (PERCENT):   -1.034701    
     1 CALLS TO GCG PACKAGE FOR TRANSPORT TIME STEP  12 IN FLOW TIME STEP   1 STRESS PERIOD   1
     4 TOTAL ITERATIONS



 >>>>>>>>>>>>>>>>>>>>>>>>>>>>>>>>>>>>>>>>>>>>>>>>>>>>>>>FOR COMPONENT NO. 01<<<<<<<<<<<<<<<<<<<<<<<<<<<<<<<<<<<<<<<<<<<<<<<<<<<<<<<


                                            -------------------------------------------
                                                      TRANSPORT STEP NO.   12
                                            -------------------------------------------

 TOTAL ELAPSED TIME SINCE BEGINNING OF SIMULATION =   717.7347    D   
 .....................................................................

                     CUMMULATIVE MASS BUDGETS AT END OF TRANSPORT STEP   12, TIME STEP    1, STRESS PERIOD    1
                     ------------------------------------------------------------------------------------------

                                                             IN                           OUT
                                                      ----------------             ----------------
                               CONSTANT CONCENTRATION:    0.000000                    0.000000    
                                        CONSTANT HEAD:    0.000000                  -0.1718842E-28
                                                WELLS:   0.7177347E+09                0.000000    
                               1ST/0TH ORDER REACTION:    0.000000                    0.000000    
                                MASS STORAGE (SOLUTE):   0.4231118E-35              -0.5748756E+09
                                MASS STORAGE (SORBED):   0.1871578E-31              -0.1490719E+09
                            ---------------------------------------------------------------------------
                                              [TOTAL]:   0.7177347E+09 KG           -0.7239475E+09 KG  

                                                          NET (IN - OUT):   -6212864.    
                                                   DISCREPANCY (PERCENT):  -0.8618909    
     1 CALLS TO GCG PACKAGE FOR TRANSPORT TIME STEP  13 IN FLOW TIME STEP   1 STRESS PERIOD   1
     3 TOTAL ITERATIONS
  MAXIMUM CONCENTRATION CHANGES FOR EACH ITERATION:
  MAX. CHANGE LAYER,ROW,COL MAX. CHANGE LAYER,ROW,COL MAX. CHANGE LAYER,ROW,COL MAX. CHANGE LAYER,ROW,COL MAX. CHANGE LAYER,ROW,COL
 ------------------------------------------------------------------------------------------------------------------------------------
   0.9554E-01 (  1, 16, 26)  0.8669E-04 (  1, 15, 27)  0.5215E-07 (  1, 14, 28)



 >>>>>>>>>>>>>>>>>>>>>>>>>>>>>>>>>>>>>>>>>>>>>>>>>>>>>>>FOR COMPONENT NO. 01<<<<<<<<<<<<<<<<<<<<<<<<<<<<<<<<<<<<<<<<<<<<<<<<<<<<<<<


                                            -------------------------------------------
                                                      TRANSPORT STEP NO.   13
                                            -------------------------------------------

 TOTAL ELAPSED TIME SINCE BEGINNING OF SIMULATION =   730.0000    D   
 .....................................................................

                     CUMMULATIVE MASS BUDGETS AT END OF TRANSPORT STEP   13, TIME STEP    1, STRESS PERIOD    1
                     ------------------------------------------------------------------------------------------

                                                             IN                           OUT
                                                      ----------------             ----------------
                               CONSTANT CONCENTRATION:    0.000000                    0.000000    
                                        CONSTANT HEAD:    0.000000                  -0.1748393E-28
                                                WELLS:   0.7300000E+09                0.000000    
                               1ST/0TH ORDER REACTION:    0.000000                    0.000000    
                                MASS STORAGE (SOLUTE):   0.6720173E-11              -0.5845782E+09
                                MASS STORAGE (SORBED):   0.8472429E-10              -0.1516118E+09
                            ---------------------------------------------------------------------------
                                              [TOTAL]:   0.7300000E+09 KG           -0.7361901E+09 KG  

                                                          NET (IN - OUT):   -6190080.    
                                                   DISCREPANCY (PERCENT):  -0.8443762    


                                   ++++++++++++++++++++++++++++++++++++++++++++++++++++++++++++++
                                                       STRESS PERIOD NO.  002
                                   ++++++++++++++++++++++++++++++++++++++++++++++++++++++++++++++


 LENGTH OF CURRENT STRESS PERIOD =   730.0000    
 NUMBER OF TIME STEPS FOR CURRENT STRESS PERIOD =    1
 TIME STEP MULTIPLIER USED IN FLOW SOLUTION =   1.000000    

 ***Type of Transport Simulation is TRANSIENT

 USER-SPECIFIED TRANSPORT STEPSIZE =   0.000000    D   
 MAXIMUM NUMBER OF TRANSPORT STEPS ALLOWED  IN ONE FLOW TIME STEP =     50000
 MULTIPLIER FOR SUCCESSIVE TRANSPORT STEPS  [USED IN IMPLICIT SCHEMES] =     1.000
 MAXIMUM TRANSPORT STEP SIZE  [USED IN IMPLICIT SCHEMES] =   0.000000    D   

       NO    LAYER   ROW   COLUMN   CONCENTRATION       TYPE            COMPONENT
       1       1      16      26       10000.00         WELL                1


                                          ================================================
                                                         TIME STEP NO.  001
                                          ================================================

 FROM TIME =   730.00     TO    1460.0    


                    "THKSAT          " FLOW TERMS FOR TIME STEP  1, STRESS PERIOD  2 READ UNFORMATTED ON UNIT 10
                    --------------------------------------------------------------------------------------------

                    "QXX             " FLOW TERMS FOR TIME STEP  1, STRESS PERIOD  2 READ UNFORMATTED ON UNIT 10
                    --------------------------------------------------------------------------------------------

                    "QYY             " FLOW TERMS FOR TIME STEP  1, STRESS PERIOD  2 READ UNFORMATTED ON UNIT 10
                    --------------------------------------------------------------------------------------------

 MAXIMUM STEPSIZE DURING WHICH ANY PARTICLE CANNOT MOVE MORE THAN ONE CELL
 =  152.6    (WHEN MIN. R.F.=1)  AT K=   1, I=  20, J=  38

 MAXIMUM STEPSIZE WHICH MEETS STABILITY CRITERION OF THE ADVECTION TERM
 (FOR PURE FINITE-DIFFERENCE OPTION, MIXELM=0) 
 =  119.6    (WHEN MIN. R.F.=1)  AT K=   1, I=  16, J=  26

                    "CNH             " FLOW TERMS FOR TIME STEP  1, STRESS PERIOD  2 READ UNFORMATTED ON UNIT 10
                    --------------------------------------------------------------------------------------------

                    "WEL             " FLOW TERMS FOR TIME STEP  1, STRESS PERIOD  2 READ UNFORMATTED ON UNIT 10
                    --------------------------------------------------------------------------------------------


 TOTAL NUMBER OF POINT SOURCES/SINKS PRESENT IN THE FLOW MODEL =    83

 MAXIMUM STEPSIZE WHICH MEETS STABILITY CRITERION OF THE SINK & SOURCE TERM
 =  146.5    (WHEN MIN. R.F.=1)  AT K=   1, I=  16, J=  26

 MAXIMUM STEPSIZE WHICH MEETS STABILITY CRITERION OF THE DISPERSION TERM
 =  51.85    (WHEN MIN. R.F.=1)  AT K=   1, I=  16, J=  26


     1 CALLS TO GCG PACKAGE FOR TRANSPORT TIME STEP   1 IN FLOW TIME STEP   1 STRESS PERIOD   2
     4 TOTAL ITERATIONS



 >>>>>>>>>>>>>>>>>>>>>>>>>>>>>>>>>>>>>>>>>>>>>>>>>>>>>>>FOR COMPONENT NO. 01<<<<<<<<<<<<<<<<<<<<<<<<<<<<<<<<<<<<<<<<<<<<<<<<<<<<<<<


                                            -------------------------------------------
                                                      TRANSPORT STEP NO.    1
                                            -------------------------------------------

 TOTAL ELAPSED TIME SINCE BEGINNING OF SIMULATION =   789.8112    D   
 .....................................................................

                     CUMMULATIVE MASS BUDGETS AT END OF TRANSPORT STEP    1, TIME STEP    1, STRESS PERIOD    2
                     ------------------------------------------------------------------------------------------

                                                             IN                           OUT
                                                      ----------------             ----------------
                               CONSTANT CONCENTRATION:    0.000000                    0.000000    
                                        CONSTANT HEAD:    0.000000                  -0.1892652E-28
                                                WELLS:   0.7898112E+09                0.000000    
                               1ST/0TH ORDER REACTION:    0.000000                    0.000000    
                                MASS STORAGE (SOLUTE):   0.6720173E-11              -0.6314547E+09
                                MASS STORAGE (SORBED):   0.8472429E-10              -0.1639282E+09
                            ---------------------------------------------------------------------------
                                              [TOTAL]:   0.7898112E+09 KG           -0.7953828E+09 KG  

                                                          NET (IN - OUT):   -5571648.    
                                                   DISCREPANCY (PERCENT):  -0.7029610    
     1 CALLS TO GCG PACKAGE FOR TRANSPORT TIME STEP   2 IN FLOW TIME STEP   1 STRESS PERIOD   2
     4 TOTAL ITERATIONS



 >>>>>>>>>>>>>>>>>>>>>>>>>>>>>>>>>>>>>>>>>>>>>>>>>>>>>>>FOR COMPONENT NO. 01<<<<<<<<<<<<<<<<<<<<<<<<<<<<<<<<<<<<<<<<<<<<<<<<<<<<<<<


                                            -------------------------------------------
                                                      TRANSPORT STEP NO.    2
                                            -------------------------------------------

 TOTAL ELAPSED TIME SINCE BEGINNING OF SIMULATION =   849.6224    D   
 .....................................................................

                     CUMMULATIVE MASS BUDGETS AT END OF TRANSPORT STEP    2, TIME STEP    1, STRESS PERIOD    2
                     ------------------------------------------------------------------------------------------

                                                             IN                           OUT
                                                      ----------------             ----------------
                               CONSTANT CONCENTRATION:    0.000000                    0.000000    
                                        CONSTANT HEAD:    0.000000                  -0.2037064E-28
                                                WELLS:   0.8496224E+09                0.000000    
                               1ST/0TH ORDER REACTION:    0.000000                    0.000000    
                                MASS STORAGE (SOLUTE):   0.6720173E-11              -0.6783309E+09
                                MASS STORAGE (SORBED):   0.8472429E-10              -0.1762538E+09
                            ---------------------------------------------------------------------------
                                              [TOTAL]:   0.8496224E+09 KG           -0.8545847E+09 KG  

                                                          NET (IN - OUT):   -4962304.    
                                                   DISCREPANCY (PERCENT):  -0.5823593    
     1 CALLS TO GCG PACKAGE FOR TRANSPORT TIME STEP   3 IN FLOW TIME STEP   1 STRESS PERIOD   2
     4 TOTAL ITERATIONS



 >>>>>>>>>>>>>>>>>>>>>>>>>>>>>>>>>>>>>>>>>>>>>>>>>>>>>>>FOR COMPONENT NO. 01<<<<<<<<<<<<<<<<<<<<<<<<<<<<<<<<<<<<<<<<<<<<<<<<<<<<<<<


                                            -------------------------------------------
                                                      TRANSPORT STEP NO.    3
                                            -------------------------------------------

 TOTAL ELAPSED TIME SINCE BEGINNING OF SIMULATION =   909.4337    D   
 .....................................................................

                     CUMMULATIVE MASS BUDGETS AT END OF TRANSPORT STEP    3, TIME STEP    1, STRESS PERIOD    2
                     ------------------------------------------------------------------------------------------

                                                             IN                           OUT
                                                      ----------------             ----------------
                               CONSTANT CONCENTRATION:    0.000000                    0.000000    
                                        CONSTANT HEAD:    0.000000                  -0.2181630E-28
                                                WELLS:   0.9094336E+09                0.000000    
                               1ST/0TH ORDER REACTION:    0.000000                    0.000000    
                                MASS STORAGE (SOLUTE):   0.6720173E-11              -0.7252061E+09
                                MASS STORAGE (SORBED):   0.8472429E-10              -0.1885884E+09
                            ---------------------------------------------------------------------------
                                              [TOTAL]:   0.9094336E+09 KG           -0.9137944E+09 KG  

                                                          NET (IN - OUT):   -4360832.    
                                                   DISCREPANCY (PERCENT):  -0.4783639    
     1 CALLS TO GCG PACKAGE FOR TRANSPORT TIME STEP   4 IN FLOW TIME STEP   1 STRESS PERIOD   2
     4 TOTAL ITERATIONS



 >>>>>>>>>>>>>>>>>>>>>>>>>>>>>>>>>>>>>>>>>>>>>>>>>>>>>>>FOR COMPONENT NO. 01<<<<<<<<<<<<<<<<<<<<<<<<<<<<<<<<<<<<<<<<<<<<<<<<<<<<<<<


                                            -------------------------------------------
                                                      TRANSPORT STEP NO.    4
                                            -------------------------------------------

 TOTAL ELAPSED TIME SINCE BEGINNING OF SIMULATION =   969.2449    D   
 .....................................................................

                     CUMMULATIVE MASS BUDGETS AT END OF TRANSPORT STEP    4, TIME STEP    1, STRESS PERIOD    2
                     ------------------------------------------------------------------------------------------

                                                             IN                           OUT
                                                      ----------------             ----------------
                               CONSTANT CONCENTRATION:    0.000000                    0.000000    
                                        CONSTANT HEAD:    0.000000                  -0.2326350E-28
                                                WELLS:   0.9692448E+09                0.000000    
                               1ST/0TH ORDER REACTION:    0.000000                    0.000000    
                                MASS STORAGE (SOLUTE):   0.6720173E-11              -0.7720794E+09
                                MASS STORAGE (SORBED):   0.8472429E-10              -0.2009316E+09
                            ---------------------------------------------------------------------------
                                              [TOTAL]:   0.9692448E+09 KG           -0.9730110E+09 KG  

                                                          NET (IN - OUT):   -3766208.    
                                                   DISCREPANCY (PERCENT):  -0.3878179    
     1 CALLS TO GCG PACKAGE FOR TRANSPORT TIME STEP   5 IN FLOW TIME STEP   1 STRESS PERIOD   2
     4 TOTAL ITERATIONS



 >>>>>>>>>>>>>>>>>>>>>>>>>>>>>>>>>>>>>>>>>>>>>>>>>>>>>>>FOR COMPONENT NO. 01<<<<<<<<<<<<<<<<<<<<<<<<<<<<<<<<<<<<<<<<<<<<<<<<<<<<<<<


                                            -------------------------------------------
                                                      TRANSPORT STEP NO.    5
                                            -------------------------------------------

 TOTAL ELAPSED TIME SINCE BEGINNING OF SIMULATION =   1029.056    D   
 .....................................................................

                     CUMMULATIVE MASS BUDGETS AT END OF TRANSPORT STEP    5, TIME STEP    1, STRESS PERIOD    2
                     ------------------------------------------------------------------------------------------

                                                             IN                           OUT
                                                      ----------------             ----------------
                               CONSTANT CONCENTRATION:    0.000000                    0.000000    
                                        CONSTANT HEAD:    0.000000                  -0.2471225E-28
                                                WELLS:   0.1029056E+10                0.000000    
                               1ST/0TH ORDER REACTION:    0.000000                    0.000000    
                                MASS STORAGE (SOLUTE):   0.6720173E-11              -0.8189501E+09
                                MASS STORAGE (SORBED):   0.8472429E-10              -0.2132835E+09
                            ---------------------------------------------------------------------------
                                              [TOTAL]:   0.1029056E+10 KG           -0.1032234E+10 KG  

                                                          NET (IN - OUT):   -3177600.    
                                                   DISCREPANCY (PERCENT):  -0.3083118    
     1 CALLS TO GCG PACKAGE FOR TRANSPORT TIME STEP   6 IN FLOW TIME STEP   1 STRESS PERIOD   2
     4 TOTAL ITERATIONS



 >>>>>>>>>>>>>>>>>>>>>>>>>>>>>>>>>>>>>>>>>>>>>>>>>>>>>>>FOR COMPONENT NO. 01<<<<<<<<<<<<<<<<<<<<<<<<<<<<<<<<<<<<<<<<<<<<<<<<<<<<<<<


                                            -------------------------------------------
                                                      TRANSPORT STEP NO.    6
                                            -------------------------------------------

 TOTAL ELAPSED TIME SINCE BEGINNING OF SIMULATION =   1088.867    D   
 .....................................................................

                     CUMMULATIVE MASS BUDGETS AT END OF TRANSPORT STEP    6, TIME STEP    1, STRESS PERIOD    2
                     ------------------------------------------------------------------------------------------

                                                             IN                           OUT
                                                      ----------------             ----------------
                               CONSTANT CONCENTRATION:    0.000000                    0.000000    
                                        CONSTANT HEAD:    0.000000                  -0.2616253E-28
                                                WELLS:   0.1088867E+10                0.000000    
                               1ST/0TH ORDER REACTION:    0.000000                    0.000000    
                                MASS STORAGE (SOLUTE):   0.6720173E-11              -0.8658177E+09
                                MASS STORAGE (SORBED):   0.8472429E-10              -0.2256438E+09
                            ---------------------------------------------------------------------------
                                              [TOTAL]:   0.1088867E+10 KG           -0.1091462E+10 KG  

                                                          NET (IN - OUT):   -2594432.    
                                                   DISCREPANCY (PERCENT):  -0.2379854    
     1 CALLS TO GCG PACKAGE FOR TRANSPORT TIME STEP   7 IN FLOW TIME STEP   1 STRESS PERIOD   2
     4 TOTAL ITERATIONS



 >>>>>>>>>>>>>>>>>>>>>>>>>>>>>>>>>>>>>>>>>>>>>>>>>>>>>>>FOR COMPONENT NO. 01<<<<<<<<<<<<<<<<<<<<<<<<<<<<<<<<<<<<<<<<<<<<<<<<<<<<<<<


                                            -------------------------------------------
                                                      TRANSPORT STEP NO.    7
                                            -------------------------------------------

 TOTAL ELAPSED TIME SINCE BEGINNING OF SIMULATION =   1148.679    D   
 .....................................................................

                     CUMMULATIVE MASS BUDGETS AT END OF TRANSPORT STEP    7, TIME STEP    1, STRESS PERIOD    2
                     ------------------------------------------------------------------------------------------

                                                             IN                           OUT
                                                      ----------------             ----------------
                               CONSTANT CONCENTRATION:    0.000000                    0.000000    
                                        CONSTANT HEAD:    0.000000                  -0.2761436E-28
                                                WELLS:   0.1148678E+10                0.000000    
                               1ST/0TH ORDER REACTION:    0.000000                    0.000000    
                                MASS STORAGE (SOLUTE):   0.6720173E-11              -0.9126817E+09
                                MASS STORAGE (SORBED):   0.8472429E-10              -0.2380126E+09
                            ---------------------------------------------------------------------------
                                              [TOTAL]:   0.1148678E+10 KG           -0.1150694E+10 KG  

                                                          NET (IN - OUT):   -2015872.    
                                                   DISCREPANCY (PERCENT):  -0.1753411    
     1 CALLS TO GCG PACKAGE FOR TRANSPORT TIME STEP   8 IN FLOW TIME STEP   1 STRESS PERIOD   2
     4 TOTAL ITERATIONS



 >>>>>>>>>>>>>>>>>>>>>>>>>>>>>>>>>>>>>>>>>>>>>>>>>>>>>>>FOR COMPONENT NO. 01<<<<<<<<<<<<<<<<<<<<<<<<<<<<<<<<<<<<<<<<<<<<<<<<<<<<<<<


                                            -------------------------------------------
                                                      TRANSPORT STEP NO.    8
                                            -------------------------------------------

 TOTAL ELAPSED TIME SINCE BEGINNING OF SIMULATION =   1208.490    D   
 .....................................................................

                     CUMMULATIVE MASS BUDGETS AT END OF TRANSPORT STEP    8, TIME STEP    1, STRESS PERIOD    2
                     ------------------------------------------------------------------------------------------

                                                             IN                           OUT
                                                      ----------------             ----------------
                               CONSTANT CONCENTRATION:    0.000000                    0.000000    
                                        CONSTANT HEAD:    0.000000                  -0.2906774E-28
                                                WELLS:   0.1208490E+10                0.000000    
                               1ST/0TH ORDER REACTION:    0.000000                    0.000000    
                                MASS STORAGE (SOLUTE):   0.6720173E-11              -0.9595416E+09
                                MASS STORAGE (SORBED):   0.8472429E-10              -0.2503897E+09
                            ---------------------------------------------------------------------------
                                              [TOTAL]:   0.1208490E+10 KG           -0.1209931E+10 KG  

                                                          NET (IN - OUT):   -1441664.    
                                                   DISCREPANCY (PERCENT):  -0.1192236    
     1 CALLS TO GCG PACKAGE FOR TRANSPORT TIME STEP   9 IN FLOW TIME STEP   1 STRESS PERIOD   2
     4 TOTAL ITERATIONS



 >>>>>>>>>>>>>>>>>>>>>>>>>>>>>>>>>>>>>>>>>>>>>>>>>>>>>>>FOR COMPONENT NO. 01<<<<<<<<<<<<<<<<<<<<<<<<<<<<<<<<<<<<<<<<<<<<<<<<<<<<<<<


                                            -------------------------------------------
                                                      TRANSPORT STEP NO.    9
                                            -------------------------------------------

 TOTAL ELAPSED TIME SINCE BEGINNING OF SIMULATION =   1268.301    D   
 .....................................................................

                     CUMMULATIVE MASS BUDGETS AT END OF TRANSPORT STEP    9, TIME STEP    1, STRESS PERIOD    2
                     ------------------------------------------------------------------------------------------

                                                             IN                           OUT
                                                      ----------------             ----------------
                               CONSTANT CONCENTRATION:    0.000000                    0.000000    
                                        CONSTANT HEAD:    0.000000                  -0.3052267E-28
                                                WELLS:   0.1268301E+10                0.000000    
                               1ST/0TH ORDER REACTION:    0.000000                    0.000000    
                                MASS STORAGE (SOLUTE):   0.6720173E-11              -0.1006397E+10
                                MASS STORAGE (SORBED):   0.8472429E-10              -0.2627754E+09
                            ---------------------------------------------------------------------------
                                              [TOTAL]:   0.1268301E+10 KG           -0.1269172E+10 KG  

                                                          NET (IN - OUT):   -871168.0    
                                                   DISCREPANCY (PERCENT):  -0.6866422E-01
     1 CALLS TO GCG PACKAGE FOR TRANSPORT TIME STEP  10 IN FLOW TIME STEP   1 STRESS PERIOD   2
     4 TOTAL ITERATIONS



 >>>>>>>>>>>>>>>>>>>>>>>>>>>>>>>>>>>>>>>>>>>>>>>>>>>>>>>FOR COMPONENT NO. 01<<<<<<<<<<<<<<<<<<<<<<<<<<<<<<<<<<<<<<<<<<<<<<<<<<<<<<<


                                            -------------------------------------------
                                                      TRANSPORT STEP NO.   10
                                            -------------------------------------------

 TOTAL ELAPSED TIME SINCE BEGINNING OF SIMULATION =   1328.113    D   
 .....................................................................

                     CUMMULATIVE MASS BUDGETS AT END OF TRANSPORT STEP   10, TIME STEP    1, STRESS PERIOD    2
                     ------------------------------------------------------------------------------------------

                                                             IN                           OUT
                                                      ----------------             ----------------
                               CONSTANT CONCENTRATION:    0.000000                    0.000000    
                                        CONSTANT HEAD:    0.000000                  -0.3197915E-28
                                                WELLS:   0.1328112E+10                0.000000    
                               1ST/0TH ORDER REACTION:    0.000000                    0.000000    
                                MASS STORAGE (SOLUTE):   0.6720173E-11              -0.1053247E+10
                                MASS STORAGE (SORBED):   0.8472429E-10              -0.2751696E+09
                            ---------------------------------------------------------------------------
                                              [TOTAL]:   0.1328112E+10 KG           -0.1328416E+10 KG  

                                                          NET (IN - OUT):   -304256.0    
                                                   DISCREPANCY (PERCENT):  -0.2290629E-01
     1 CALLS TO GCG PACKAGE FOR TRANSPORT TIME STEP  11 IN FLOW TIME STEP   1 STRESS PERIOD   2
     4 TOTAL ITERATIONS



 >>>>>>>>>>>>>>>>>>>>>>>>>>>>>>>>>>>>>>>>>>>>>>>>>>>>>>>FOR COMPONENT NO. 01<<<<<<<<<<<<<<<<<<<<<<<<<<<<<<<<<<<<<<<<<<<<<<<<<<<<<<<


                                            -------------------------------------------
                                                      TRANSPORT STEP NO.   11
                                            -------------------------------------------

 TOTAL ELAPSED TIME SINCE BEGINNING OF SIMULATION =   1387.924    D   
 .....................................................................

                     CUMMULATIVE MASS BUDGETS AT END OF TRANSPORT STEP   11, TIME STEP    1, STRESS PERIOD    2
                     ------------------------------------------------------------------------------------------

                                                             IN                           OUT
                                                      ----------------             ----------------
                               CONSTANT CONCENTRATION:    0.000000                    0.000000    
                                        CONSTANT HEAD:    0.000000                  -0.3343718E-28
                                                WELLS:   0.1387923E+10                0.000000    
                               1ST/0TH ORDER REACTION:    0.000000                    0.000000    
                                MASS STORAGE (SOLUTE):   0.6720173E-11              -0.1100091E+10
                                MASS STORAGE (SORBED):   0.8472429E-10              -0.2875723E+09
                            ---------------------------------------------------------------------------
                                              [TOTAL]:   0.1387923E+10 KG           -0.1387663E+10 KG  

                                                          NET (IN - OUT):    259712.0    
                                                   DISCREPANCY (PERCENT):   0.1871402E-01
     1 CALLS TO GCG PACKAGE FOR TRANSPORT TIME STEP  12 IN FLOW TIME STEP   1 STRESS PERIOD   2
     4 TOTAL ITERATIONS



 >>>>>>>>>>>>>>>>>>>>>>>>>>>>>>>>>>>>>>>>>>>>>>>>>>>>>>>FOR COMPONENT NO. 01<<<<<<<<<<<<<<<<<<<<<<<<<<<<<<<<<<<<<<<<<<<<<<<<<<<<<<<


                                            -------------------------------------------
                                                      TRANSPORT STEP NO.   12
                                            -------------------------------------------

 TOTAL ELAPSED TIME SINCE BEGINNING OF SIMULATION =   1447.735    D   
 .....................................................................

                     CUMMULATIVE MASS BUDGETS AT END OF TRANSPORT STEP   12, TIME STEP    1, STRESS PERIOD    2
                     ------------------------------------------------------------------------------------------

                                                             IN                           OUT
                                                      ----------------             ----------------
                               CONSTANT CONCENTRATION:    0.000000                    0.000000    
                                        CONSTANT HEAD:    0.000000                  -0.3489676E-28
                                                WELLS:   0.1447734E+10                0.000000    
                               1ST/0TH ORDER REACTION:    0.000000                    0.000000    
                                MASS STORAGE (SOLUTE):   0.6720173E-11              -0.1146930E+10
                                MASS STORAGE (SORBED):   0.8472429E-10              -0.2999833E+09
                            ---------------------------------------------------------------------------
                                              [TOTAL]:   0.1447734E+10 KG           -0.1446914E+10 KG  

                                                          NET (IN - OUT):    820864.0    
                                                   DISCREPANCY (PERCENT):   0.5671598E-01
     1 CALLS TO GCG PACKAGE FOR TRANSPORT TIME STEP  13 IN FLOW TIME STEP   1 STRESS PERIOD   2
     3 TOTAL ITERATIONS
  MAXIMUM CONCENTRATION CHANGES FOR EACH ITERATION:
  MAX. CHANGE LAYER,ROW,COL MAX. CHANGE LAYER,ROW,COL MAX. CHANGE LAYER,ROW,COL MAX. CHANGE LAYER,ROW,COL MAX. CHANGE LAYER,ROW,COL
 ------------------------------------------------------------------------------------------------------------------------------------
   0.9352E-01 (  1, 16, 26)  0.8535E-04 (  1, 15, 27)  0.4470E-07 (  1, 14, 28)



 >>>>>>>>>>>>>>>>>>>>>>>>>>>>>>>>>>>>>>>>>>>>>>>>>>>>>>>FOR COMPONENT NO. 01<<<<<<<<<<<<<<<<<<<<<<<<<<<<<<<<<<<<<<<<<<<<<<<<<<<<<<<


                                            -------------------------------------------
                                                      TRANSPORT STEP NO.   13
                                            -------------------------------------------

 TOTAL ELAPSED TIME SINCE BEGINNING OF SIMULATION =   1460.000    D   
 .....................................................................

                     CUMMULATIVE MASS BUDGETS AT END OF TRANSPORT STEP   13, TIME STEP    1, STRESS PERIOD    2
                     ------------------------------------------------------------------------------------------

                                                             IN                           OUT
                                                      ----------------             ----------------
                               CONSTANT CONCENTRATION:    0.000000                    0.000000    
                                        CONSTANT HEAD:    0.000000                  -0.3519613E-28
                                                WELLS:   0.1459999E+10                0.000000    
                               1ST/0TH ORDER REACTION:    0.000000                    0.000000    
                                MASS STORAGE (SOLUTE):    129415.2                  -0.1156747E+10
                                MASS STORAGE (SORBED):    32262.10                  -0.3025726E+09
                            ---------------------------------------------------------------------------
                                              [TOTAL]:   0.1460161E+10 KG           -0.1459320E+10 KG  

                                                          NET (IN - OUT):    841088.0    
                                                   DISCREPANCY (PERCENT):   0.5761901E-01


                                   ++++++++++++++++++++++++++++++++++++++++++++++++++++++++++++++
                                                       STRESS PERIOD NO.  003
                                   ++++++++++++++++++++++++++++++++++++++++++++++++++++++++++++++


 LENGTH OF CURRENT STRESS PERIOD =   730.0000    
 NUMBER OF TIME STEPS FOR CURRENT STRESS PERIOD =    1
 TIME STEP MULTIPLIER USED IN FLOW SOLUTION =   1.000000    

 ***Type of Transport Simulation is TRANSIENT

 USER-SPECIFIED TRANSPORT STEPSIZE =   0.000000    D   
 MAXIMUM NUMBER OF TRANSPORT STEPS ALLOWED  IN ONE FLOW TIME STEP =     50000
 MULTIPLIER FOR SUCCESSIVE TRANSPORT STEPS  [USED IN IMPLICIT SCHEMES] =     1.000
 MAXIMUM TRANSPORT STEP SIZE  [USED IN IMPLICIT SCHEMES] =   0.000000    D   

       NO    LAYER   ROW   COLUMN   CONCENTRATION       TYPE            COMPONENT
       1       1      16      26       10000.00         WELL                1


                                          ================================================
                                                         TIME STEP NO.  001
                                          ================================================

 FROM TIME =   1460.0     TO    2190.0    


                    "THKSAT          " FLOW TERMS FOR TIME STEP  1, STRESS PERIOD  3 READ UNFORMATTED ON UNIT 10
                    --------------------------------------------------------------------------------------------

                    "QXX             " FLOW TERMS FOR TIME STEP  1, STRESS PERIOD  3 READ UNFORMATTED ON UNIT 10
                    --------------------------------------------------------------------------------------------

                    "QYY             " FLOW TERMS FOR TIME STEP  1, STRESS PERIOD  3 READ UNFORMATTED ON UNIT 10
                    --------------------------------------------------------------------------------------------

 MAXIMUM STEPSIZE DURING WHICH ANY PARTICLE CANNOT MOVE MORE THAN ONE CELL
 =  152.6    (WHEN MIN. R.F.=1)  AT K=   1, I=  20, J=  38

 MAXIMUM STEPSIZE WHICH MEETS STABILITY CRITERION OF THE ADVECTION TERM
 (FOR PURE FINITE-DIFFERENCE OPTION, MIXELM=0) 
 =  119.6    (WHEN MIN. R.F.=1)  AT K=   1, I=  16, J=  26

                    "CNH             " FLOW TERMS FOR TIME STEP  1, STRESS PERIOD  3 READ UNFORMATTED ON UNIT 10
                    --------------------------------------------------------------------------------------------

                    "WEL             " FLOW TERMS FOR TIME STEP  1, STRESS PERIOD  3 READ UNFORMATTED ON UNIT 10
                    --------------------------------------------------------------------------------------------


 TOTAL NUMBER OF POINT SOURCES/SINKS PRESENT IN THE FLOW MODEL =    83

 MAXIMUM STEPSIZE WHICH MEETS STABILITY CRITERION OF THE SINK & SOURCE TERM
 =  146.5    (WHEN MIN. R.F.=1)  AT K=   1, I=  16, J=  26

 MAXIMUM STEPSIZE WHICH MEETS STABILITY CRITERION OF THE DISPERSION TERM
 =  51.85    (WHEN MIN. R.F.=1)  AT K=   1, I=  16, J=  26


     1 CALLS TO GCG PACKAGE FOR TRANSPORT TIME STEP   1 IN FLOW TIME STEP   1 STRESS PERIOD   3
     4 TOTAL ITERATIONS



 >>>>>>>>>>>>>>>>>>>>>>>>>>>>>>>>>>>>>>>>>>>>>>>>>>>>>>>FOR COMPONENT NO. 01<<<<<<<<<<<<<<<<<<<<<<<<<<<<<<<<<<<<<<<<<<<<<<<<<<<<<<<


                                            -------------------------------------------
                                                      TRANSPORT STEP NO.    1
                                            -------------------------------------------

 TOTAL ELAPSED TIME SINCE BEGINNING OF SIMULATION =   1519.811    D   
 .....................................................................

                     CUMMULATIVE MASS BUDGETS AT END OF TRANSPORT STEP    1, TIME STEP    1, STRESS PERIOD    3
                     ------------------------------------------------------------------------------------------

                                                             IN                           OUT
                                                      ----------------             ----------------
                               CONSTANT CONCENTRATION:    0.000000                    0.000000    
                                        CONSTANT HEAD:    0.000000                  -0.3665756E-28
                                                WELLS:   0.1519810E+10                0.000000    
                               1ST/0TH ORDER REACTION:    0.000000                    0.000000    
                                MASS STORAGE (SOLUTE):    129415.2                  -0.1203577E+10
                                MASS STORAGE (SORBED):    32262.10                  -0.3149951E+09
                            ---------------------------------------------------------------------------
                                              [TOTAL]:   0.1519972E+10 KG           -0.1518572E+10 KG  

                                                          NET (IN - OUT):    1399680.    
                                                   DISCREPANCY (PERCENT):   0.9212832E-01
     1 CALLS TO GCG PACKAGE FOR TRANSPORT TIME STEP   2 IN FLOW TIME STEP   1 STRESS PERIOD   3
     4 TOTAL ITERATIONS



 >>>>>>>>>>>>>>>>>>>>>>>>>>>>>>>>>>>>>>>>>>>>>>>>>>>>>>>FOR COMPONENT NO. 01<<<<<<<<<<<<<<<<<<<<<<<<<<<<<<<<<<<<<<<<<<<<<<<<<<<<<<<


                                            -------------------------------------------
                                                      TRANSPORT STEP NO.    2
                                            -------------------------------------------

 TOTAL ELAPSED TIME SINCE BEGINNING OF SIMULATION =   1579.623    D   
 .....................................................................

                     CUMMULATIVE MASS BUDGETS AT END OF TRANSPORT STEP    2, TIME STEP    1, STRESS PERIOD    3
                     ------------------------------------------------------------------------------------------

                                                             IN                           OUT
                                                      ----------------             ----------------
                               CONSTANT CONCENTRATION:    0.000000                    0.000000    
                                        CONSTANT HEAD:    0.000000                  -0.3812056E-28
                                                WELLS:   0.1579622E+10                0.000000    
                               1ST/0TH ORDER REACTION:    0.000000                    0.000000    
                                MASS STORAGE (SOLUTE):    129415.2                  -0.1250402E+10
                                MASS STORAGE (SORBED):    32262.10                  -0.3274250E+09
                            ---------------------------------------------------------------------------
                                              [TOTAL]:   0.1579783E+10 KG           -0.1577827E+10 KG  

                                                          NET (IN - OUT):    1955840.    
                                                   DISCREPANCY (PERCENT):   0.1238810    
     1 CALLS TO GCG PACKAGE FOR TRANSPORT TIME STEP   3 IN FLOW TIME STEP   1 STRESS PERIOD   3
     4 TOTAL ITERATIONS



 >>>>>>>>>>>>>>>>>>>>>>>>>>>>>>>>>>>>>>>>>>>>>>>>>>>>>>>FOR COMPONENT NO. 01<<<<<<<<<<<<<<<<<<<<<<<<<<<<<<<<<<<<<<<<<<<<<<<<<<<<<<<


                                            -------------------------------------------
                                                      TRANSPORT STEP NO.    3
                                            -------------------------------------------

 TOTAL ELAPSED TIME SINCE BEGINNING OF SIMULATION =   1639.434    D   
 .....................................................................

                     CUMMULATIVE MASS BUDGETS AT END OF TRANSPORT STEP    3, TIME STEP    1, STRESS PERIOD    3
                     ------------------------------------------------------------------------------------------

                                                             IN                           OUT
                                                      ----------------             ----------------
                               CONSTANT CONCENTRATION:    0.000000                    0.000000    
                                        CONSTANT HEAD:    0.000000                  -0.3958512E-28
                                                WELLS:   0.1639433E+10                0.000000    
                               1ST/0TH ORDER REACTION:    0.000000                    0.000000    
                                MASS STORAGE (SOLUTE):    129415.2                  -0.1297222E+10
                                MASS STORAGE (SORBED):    32262.10                  -0.3398625E+09
                            ---------------------------------------------------------------------------
                                              [TOTAL]:   0.1639594E+10 KG           -0.1637085E+10 KG  

                                                          NET (IN - OUT):    2509824.    
                                                   DISCREPANCY (PERCENT):   0.1531931    
     1 CALLS TO GCG PACKAGE FOR TRANSPORT TIME STEP   4 IN FLOW TIME STEP   1 STRESS PERIOD   3
     4 TOTAL ITERATIONS



 >>>>>>>>>>>>>>>>>>>>>>>>>>>>>>>>>>>>>>>>>>>>>>>>>>>>>>>FOR COMPONENT NO. 01<<<<<<<<<<<<<<<<<<<<<<<<<<<<<<<<<<<<<<<<<<<<<<<<<<<<<<<


                                            -------------------------------------------
                                                      TRANSPORT STEP NO.    4
                                            -------------------------------------------

 TOTAL ELAPSED TIME SINCE BEGINNING OF SIMULATION =   1699.245    D   
 .....................................................................

                     CUMMULATIVE MASS BUDGETS AT END OF TRANSPORT STEP    4, TIME STEP    1, STRESS PERIOD    3
                     ------------------------------------------------------------------------------------------

                                                             IN                           OUT
                                                      ----------------             ----------------
                               CONSTANT CONCENTRATION:    0.000000                    0.000000    
                                        CONSTANT HEAD:    0.000000                  -0.4105124E-28
                                                WELLS:   0.1699244E+10                0.000000    
[...]
                            ---------------------------------------------------------------------------
                                              [TOTAL]:   0.6873865E+10 KG           -0.6826359E+10 KG  

                                                          NET (IN - OUT):   0.4750592E+08
                                                   DISCREPANCY (PERCENT):   0.6935057    
     1 CALLS TO GCG PACKAGE FOR TRANSPORT TIME STEP   6 IN FLOW TIME STEP   1 STRESS PERIOD  10
     4 TOTAL ITERATIONS



 >>>>>>>>>>>>>>>>>>>>>>>>>>>>>>>>>>>>>>>>>>>>>>>>>>>>>>>FOR COMPONENT NO. 01<<<<<<<<<<<<<<<<<<<<<<<<<<<<<<<<<<<<<<<<<<<<<<<<<<<<<<<


                                            -------------------------------------------
                                                      TRANSPORT STEP NO.    6
                                            -------------------------------------------

 TOTAL ELAPSED TIME SINCE BEGINNING OF SIMULATION =   6928.866    D   
 .....................................................................

                     CUMMULATIVE MASS BUDGETS AT END OF TRANSPORT STEP    6, TIME STEP    1, STRESS PERIOD   10
                     ------------------------------------------------------------------------------------------

                                                             IN                           OUT
                                                      ----------------             ----------------
                               CONSTANT CONCENTRATION:    0.000000                    0.000000    
                                        CONSTANT HEAD:    0.000000                   -8408.560    
                                                WELLS:   0.6928879E+10                0.000000    
                               1ST/0TH ORDER REACTION:    0.000000                    0.000000    
                                MASS STORAGE (SOLUTE):    3885988.                  -0.5421069E+10
                                MASS STORAGE (SORBED):    935164.1                  -0.1464607E+10
                            ---------------------------------------------------------------------------
                                              [TOTAL]:   0.6933700E+10 KG           -0.6885685E+10 KG  

                                                          NET (IN - OUT):   0.4801485E+08
                                                   DISCREPANCY (PERCENT):   0.6948912    
     1 CALLS TO GCG PACKAGE FOR TRANSPORT TIME STEP   7 IN FLOW TIME STEP   1 STRESS PERIOD  10
     4 TOTAL ITERATIONS



 >>>>>>>>>>>>>>>>>>>>>>>>>>>>>>>>>>>>>>>>>>>>>>>>>>>>>>>FOR COMPONENT NO. 01<<<<<<<<<<<<<<<<<<<<<<<<<<<<<<<<<<<<<<<<<<<<<<<<<<<<<<<


                                            -------------------------------------------
                                                      TRANSPORT STEP NO.    7
                                            -------------------------------------------

 TOTAL ELAPSED TIME SINCE BEGINNING OF SIMULATION =   6988.677    D   
 .....................................................................

                     CUMMULATIVE MASS BUDGETS AT END OF TRANSPORT STEP    7, TIME STEP    1, STRESS PERIOD   10
                     ------------------------------------------------------------------------------------------

                                                             IN                           OUT
                                                      ----------------             ----------------
                               CONSTANT CONCENTRATION:    0.000000                    0.000000    
                                        CONSTANT HEAD:    0.000000                   -10928.77    
                                                WELLS:   0.6988690E+10                0.000000    
                               1ST/0TH ORDER REACTION:    0.000000                    0.000000    
                                MASS STORAGE (SOLUTE):    3899553.                  -0.5467469E+10
                                MASS STORAGE (SORBED):    938096.0                  -0.1477525E+10
                            ---------------------------------------------------------------------------
                                              [TOTAL]:   0.6993528E+10 KG           -0.6945004E+10 KG  

                                                          NET (IN - OUT):   0.4852378E+08
                                                   DISCREPANCY (PERCENT):   0.6962537    
     1 CALLS TO GCG PACKAGE FOR TRANSPORT TIME STEP   8 IN FLOW TIME STEP   1 STRESS PERIOD  10
     4 TOTAL ITERATIONS



 >>>>>>>>>>>>>>>>>>>>>>>>>>>>>>>>>>>>>>>>>>>>>>>>>>>>>>>FOR COMPONENT NO. 01<<<<<<<<<<<<<<<<<<<<<<<<<<<<<<<<<<<<<<<<<<<<<<<<<<<<<<<


                                            -------------------------------------------
                                                      TRANSPORT STEP NO.    8
                                            -------------------------------------------

 TOTAL ELAPSED TIME SINCE BEGINNING OF SIMULATION =   7048.488    D   
 .....................................................................

                     CUMMULATIVE MASS BUDGETS AT END OF TRANSPORT STEP    8, TIME STEP    1, STRESS PERIOD   10
                     ------------------------------------------------------------------------------------------

                                                             IN                           OUT
                                                      ----------------             ----------------
                               CONSTANT CONCENTRATION:    0.000000                    0.000000    
                                        CONSTANT HEAD:    0.000000                   -14099.12    
                                                WELLS:   0.7048502E+10                0.000000    
                               1ST/0TH ORDER REACTION:    0.000000                    0.000000    
                                MASS STORAGE (SOLUTE):    3908645.                  -0.5513860E+10
                                MASS STORAGE (SORBED):    940058.4                  -0.1490444E+10
                            ---------------------------------------------------------------------------
                                              [TOTAL]:   0.7053350E+10 KG           -0.7004318E+10 KG  

                                                          NET (IN - OUT):   0.4903219E+08
                                                   DISCREPANCY (PERCENT):   0.6975864    
     1 CALLS TO GCG PACKAGE FOR TRANSPORT TIME STEP   9 IN FLOW TIME STEP   1 STRESS PERIOD  10
     4 TOTAL ITERATIONS



 >>>>>>>>>>>>>>>>>>>>>>>>>>>>>>>>>>>>>>>>>>>>>>>>>>>>>>>FOR COMPONENT NO. 01<<<<<<<<<<<<<<<<<<<<<<<<<<<<<<<<<<<<<<<<<<<<<<<<<<<<<<<


                                            -------------------------------------------
                                                      TRANSPORT STEP NO.    9
                                            -------------------------------------------

 TOTAL ELAPSED TIME SINCE BEGINNING OF SIMULATION =   7108.299    D   
 .....................................................................

                     CUMMULATIVE MASS BUDGETS AT END OF TRANSPORT STEP    9, TIME STEP    1, STRESS PERIOD   10
                     ------------------------------------------------------------------------------------------

                                                             IN                           OUT
                                                      ----------------             ----------------
                               CONSTANT CONCENTRATION:    0.000000                    0.000000    
                                        CONSTANT HEAD:    0.000000                   -18060.24    
                                                WELLS:   0.7108313E+10                0.000000    
                               1ST/0TH ORDER REACTION:    0.000000                    0.000000    
                                MASS STORAGE (SOLUTE):    3914548.                  -0.5560245E+10
                                MASS STORAGE (SORBED):    941331.1                  -0.1503366E+10
                            ---------------------------------------------------------------------------
                                              [TOTAL]:   0.7113169E+10 KG           -0.7063628E+10 KG  

                                                          NET (IN - OUT):   0.4954112E+08
                                                   DISCREPANCY (PERCENT):   0.6989042    
     1 CALLS TO GCG PACKAGE FOR TRANSPORT TIME STEP  10 IN FLOW TIME STEP   1 STRESS PERIOD  10
     4 TOTAL ITERATIONS



 >>>>>>>>>>>>>>>>>>>>>>>>>>>>>>>>>>>>>>>>>>>>>>>>>>>>>>>FOR COMPONENT NO. 01<<<<<<<<<<<<<<<<<<<<<<<<<<<<<<<<<<<<<<<<<<<<<<<<<<<<<<<


                                            -------------------------------------------
                                                      TRANSPORT STEP NO.   10
                                            -------------------------------------------

 TOTAL ELAPSED TIME SINCE BEGINNING OF SIMULATION =   7168.110    D   
 .....................................................................

                     CUMMULATIVE MASS BUDGETS AT END OF TRANSPORT STEP   10, TIME STEP    1, STRESS PERIOD   10
                     ------------------------------------------------------------------------------------------

                                                             IN                           OUT
                                                      ----------------             ----------------
                               CONSTANT CONCENTRATION:    0.000000                    0.000000    
                                        CONSTANT HEAD:    0.000000                   -22977.16    
                                                WELLS:   0.7168124E+10                0.000000    
                               1ST/0TH ORDER REACTION:    0.000000                    0.000000    
                                MASS STORAGE (SOLUTE):    3918162.                  -0.5606623E+10
                                MASS STORAGE (SORBED):    942108.9                  -0.1516290E+10
                            ---------------------------------------------------------------------------
                                              [TOTAL]:   0.7172985E+10 KG           -0.7122936E+10 KG  

                                                          NET (IN - OUT):   0.5004902E+08
                                                   DISCREPANCY (PERCENT):   0.7001861    
     1 CALLS TO GCG PACKAGE FOR TRANSPORT TIME STEP  11 IN FLOW TIME STEP   1 STRESS PERIOD  10
     4 TOTAL ITERATIONS



 >>>>>>>>>>>>>>>>>>>>>>>>>>>>>>>>>>>>>>>>>>>>>>>>>>>>>>>FOR COMPONENT NO. 01<<<<<<<<<<<<<<<<<<<<<<<<<<<<<<<<<<<<<<<<<<<<<<<<<<<<<<<


                                            -------------------------------------------
                                                      TRANSPORT STEP NO.   11
                                            -------------------------------------------

 TOTAL ELAPSED TIME SINCE BEGINNING OF SIMULATION =   7227.921    D   
 .....................................................................

                     CUMMULATIVE MASS BUDGETS AT END OF TRANSPORT STEP   11, TIME STEP    1, STRESS PERIOD   10
                     ------------------------------------------------------------------------------------------

                                                             IN                           OUT
                                                      ----------------             ----------------
                               CONSTANT CONCENTRATION:    0.000000                    0.000000    
                                        CONSTANT HEAD:    0.000000                   -29042.41    
                                                WELLS:   0.7227936E+10                0.000000    
                               1ST/0TH ORDER REACTION:    0.000000                    0.000000    
                                MASS STORAGE (SOLUTE):    3920146.                  -0.5652997E+10
                                MASS STORAGE (SORBED):    942535.2                  -0.1529216E+10
                            ---------------------------------------------------------------------------
                                              [TOTAL]:   0.7232799E+10 KG           -0.7182242E+10 KG  

                                                          NET (IN - OUT):   0.5055693E+08
                                                   DISCREPANCY (PERCENT):   0.7014469    
     1 CALLS TO GCG PACKAGE FOR TRANSPORT TIME STEP  12 IN FLOW TIME STEP   1 STRESS PERIOD  10
     4 TOTAL ITERATIONS



 >>>>>>>>>>>>>>>>>>>>>>>>>>>>>>>>>>>>>>>>>>>>>>>>>>>>>>>FOR COMPONENT NO. 01<<<<<<<<<<<<<<<<<<<<<<<<<<<<<<<<<<<<<<<<<<<<<<<<<<<<<<<


                                            -------------------------------------------
                                                      TRANSPORT STEP NO.   12
                                            -------------------------------------------

 TOTAL ELAPSED TIME SINCE BEGINNING OF SIMULATION =   7287.732    D   
 .....................................................................

                     CUMMULATIVE MASS BUDGETS AT END OF TRANSPORT STEP   12, TIME STEP    1, STRESS PERIOD   10
                     ------------------------------------------------------------------------------------------

                                                             IN                           OUT
                                                      ----------------             ----------------
                               CONSTANT CONCENTRATION:    0.000000                    0.000000    
                                        CONSTANT HEAD:    0.000000                   -36479.33    
                                                WELLS:   0.7287747E+10                0.000000    
                               1ST/0TH ORDER REACTION:    0.000000                    0.000000    
                                MASS STORAGE (SOLUTE):    3921144.                  -0.5699365E+10
                                MASS STORAGE (SORBED):    942750.1                  -0.1542145E+10
                            ---------------------------------------------------------------------------
                                              [TOTAL]:   0.7292611E+10 KG           -0.7241546E+10 KG  

                                                          NET (IN - OUT):   0.5106432E+08
                                                   DISCREPANCY (PERCENT):   0.7026802    
     1 CALLS TO GCG PACKAGE FOR TRANSPORT TIME STEP  13 IN FLOW TIME STEP   1 STRESS PERIOD  10
     3 TOTAL ITERATIONS
  MAXIMUM CONCENTRATION CHANGES FOR EACH ITERATION:
  MAX. CHANGE LAYER,ROW,COL MAX. CHANGE LAYER,ROW,COL MAX. CHANGE LAYER,ROW,COL MAX. CHANGE LAYER,ROW,COL MAX. CHANGE LAYER,ROW,COL
 ------------------------------------------------------------------------------------------------------------------------------------
   0.9283E-01 (  1, 16, 26)  0.8506E-04 (  1, 15, 27)  0.5960E-07 (  1, 14, 28)



 >>>>>>>>>>>>>>>>>>>>>>>>>>>>>>>>>>>>>>>>>>>>>>>>>>>>>>>FOR COMPONENT NO. 01<<<<<<<<<<<<<<<<<<<<<<<<<<<<<<<<<<<<<<<<<<<<<<<<<<<<<<<


                                            -------------------------------------------
                                                      TRANSPORT STEP NO.   13
                                            -------------------------------------------

 TOTAL ELAPSED TIME SINCE BEGINNING OF SIMULATION =   7300.000    D   
 .....................................................................

                     CUMMULATIVE MASS BUDGETS AT END OF TRANSPORT STEP   13, TIME STEP    1, STRESS PERIOD   10
                     ------------------------------------------------------------------------------------------

                                                             IN                           OUT
                                                      ----------------             ----------------
                               CONSTANT CONCENTRATION:    0.000000                    0.000000    
                                        CONSTANT HEAD:    0.000000                   -38070.92    
                                                WELLS:   0.7300015E+10                0.000000    
                               1ST/0TH ORDER REACTION:    0.000000                    0.000000    
                                MASS STORAGE (SOLUTE):    4301572.                  -0.5709336E+10
                                MASS STORAGE (SORBED):    1040870.                  -0.1544901E+10
                            ---------------------------------------------------------------------------
                                              [TOTAL]:   0.7305357E+10 KG           -0.7254275E+10 KG  

                                                          NET (IN - OUT):   0.5108275E+08
                                                   DISCREPANCY (PERCENT):   0.7017039    


                                   ++++++++++++++++++++++++++++++++++++++++++++++++++++++++++++++
                                                       STRESS PERIOD NO.  011
                                   ++++++++++++++++++++++++++++++++++++++++++++++++++++++++++++++


 LENGTH OF CURRENT STRESS PERIOD =   182.5000    
 NUMBER OF TIME STEPS FOR CURRENT STRESS PERIOD =    1
 TIME STEP MULTIPLIER USED IN FLOW SOLUTION =   1.000000    

 ***Type of Transport Simulation is TRANSIENT

 USER-SPECIFIED TRANSPORT STEPSIZE =   0.000000    D   
 MAXIMUM NUMBER OF TRANSPORT STEPS ALLOWED  IN ONE FLOW TIME STEP =     50000
 MULTIPLIER FOR SUCCESSIVE TRANSPORT STEPS  [USED IN IMPLICIT SCHEMES] =     1.000
 MAXIMUM TRANSPORT STEP SIZE  [USED IN IMPLICIT SCHEMES] =   0.000000    D   

       NO    LAYER   ROW   COLUMN   CONCENTRATION       TYPE            COMPONENT


                                          ================================================
                                                         TIME STEP NO.  001
                                          ================================================

 FROM TIME =   7300.0     TO    7482.5    


                    "THKSAT          " FLOW TERMS FOR TIME STEP  1, STRESS PERIOD 11 READ UNFORMATTED ON UNIT 10
                    --------------------------------------------------------------------------------------------

                    "QXX             " FLOW TERMS FOR TIME STEP  1, STRESS PERIOD 11 READ UNFORMATTED ON UNIT 10
                    --------------------------------------------------------------------------------------------

                    "QYY             " FLOW TERMS FOR TIME STEP  1, STRESS PERIOD 11 READ UNFORMATTED ON UNIT 10
                    --------------------------------------------------------------------------------------------

 MAXIMUM STEPSIZE DURING WHICH ANY PARTICLE CANNOT MOVE MORE THAN ONE CELL
 =  155.0    (WHEN MIN. R.F.=1)  AT K=   1, I=  20, J=  39

 MAXIMUM STEPSIZE WHICH MEETS STABILITY CRITERION OF THE ADVECTION TERM
 (FOR PURE FINITE-DIFFERENCE OPTION, MIXELM=0) 
 =  146.2    (WHEN MIN. R.F.=1)  AT K=   1, I=  25, J=  54

                    "CNH             " FLOW TERMS FOR TIME STEP  1, STRESS PERIOD 11 READ UNFORMATTED ON UNIT 10
                    --------------------------------------------------------------------------------------------

                    "WEL             " FLOW TERMS FOR TIME STEP  1, STRESS PERIOD 11 READ UNFORMATTED ON UNIT 10
                    --------------------------------------------------------------------------------------------


 TOTAL NUMBER OF POINT SOURCES/SINKS PRESENT IN THE FLOW MODEL =    84
