                                  MODFLOW-2005     
      U.S. GEOLOGICAL SURVEY MODULAR FINITE-DIFFERENCE GROUND-WATER FLOW MODEL
                            VERSION 1.12.00 2/3/2017

 LIST FILE: binary_files_mf.list
                         UNIT    2

 OPENING binary_files_mf.dis
 FILE TYPE:DIS   UNIT   11   STATUS:OLD    
 FORMAT:FORMATTED              ACCESS:SEQUENTIAL          

 OPENING binary_files_mf.bas
 FILE TYPE:BAS6   UNIT   13   STATUS:OLD    
 FORMAT:FORMATTED              ACCESS:SEQUENTIAL          

 OPENING binary_files_mf.lpf
 FILE TYPE:LPF   UNIT   15   STATUS:OLD    
 FORMAT:FORMATTED              ACCESS:SEQUENTIAL          

 OPENING binary_files_mf.pcg
 FILE TYPE:PCG   UNIT   27   STATUS:OLD    
 FORMAT:FORMATTED              ACCESS:SEQUENTIAL          

 OPENING binary_files_mf.lmt6
 FILE TYPE:LMT6   UNIT   30   STATUS:OLD    
 FORMAT:FORMATTED              ACCESS:SEQUENTIAL          

 OPENING binary_files_mf.wel
 FILE TYPE:WEL   UNIT   20   STATUS:OLD    
 FORMAT:FORMATTED              ACCESS:SEQUENTIAL          

 OPENING binary_files_mf.oc
 FILE TYPE:OC   UNIT   14   STATUS:OLD    
 FORMAT:FORMATTED              ACCESS:SEQUENTIAL          

 OPENING binary_files_mf.hds
 FILE TYPE:DATA(BINARY)   UNIT   51   STATUS:REPLACE
 FORMAT:UNFORMATTED            ACCESS:STREAM              

 BAS -- BASIC PACKAGE, VERSION 7, 5/2/2005 INPUT READ FROM UNIT   13

 MODFLOW was compiled using mixed precision
 Precision of REAL variables:           6
 Precision of DOUBLE PRECISION variables:          15

 DISCRETIZATION INPUT DATA READ FROM UNIT   11
 # DIS package for  MODFLOW-2005, generated by Flopy.
    1 LAYERS        41 ROWS        81 COLUMNS
    1 STRESS PERIOD(S) IN SIMULATION
 MODEL TIME UNIT IS DAYS
 MODEL LENGTH UNIT IS METERS
  Confining bed flag for each layer:
   0

                     DELR =   31.2500    

                     DELC =   31.2500    

 TOP ELEVATION OF LAYER 1 =   0.00000    

   MODEL LAYER BOTTOM EL. =  -50.0000     FOR LAYER   1


 STRESS PERIOD     LENGTH       TIME STEPS     MULTIPLIER FOR DELT    SS FLAG
 ----------------------------------------------------------------------------
        1         1.000000          1                    1.000         SS

 STEADY-STATE SIMULATION




 # BAS6 package for  MODFLOW-2005, generated by Flopy.                           
 THE FREE FORMAT OPTION HAS BEEN SELECTED



                     BOUNDARY ARRAY FOR LAYER   1
 READING ON UNIT   13 WITH FORMAT: (81I10)             

 AQUIFER HEAD WILL BE SET TO  -999.99     AT ALL NO-FLOW NODES (IBOUND=0).



                       INITIAL HEAD FOR LAYER   1
 READING ON UNIT   13 WITH FORMAT: (81E15.6)           
 # OC package for  MODFLOW-2005, generated by Flopy.

 OUTPUT CONTROL IS SPECIFIED ONLY AT TIME STEPS FOR WHICH OUTPUT IS DESIRED
 COMPACT CELL-BY-CELL BUDGET FILES WILL BE WRITTEN
 AUXILIARY DATA WILL BE SAVED IN CELL-BY-CELL BUDGET FILES
 HEAD PRINT FORMAT CODE IS   0    DRAWDOWN PRINT FORMAT CODE IS   0
 HEADS WILL BE SAVED ON UNIT   51    DRAWDOWNS WILL BE SAVED ON UNIT    0

 LPF -- LAYER-PROPERTY FLOW PACKAGE, VERSION 7, 5/2/2005
         INPUT READ FROM UNIT   15
 # LPF package for  MODFLOW-2005, generated by Flopy.
 HEAD AT CELLS THAT CONVERT TO DRY= -1.00000E+30
 No named parameters

   LAYER FLAGS:
 LAYER       LAYTYP        LAYAVG         CHANI        LAYVKA        LAYWET
 ---------------------------------------------------------------------------
    1             0             0     1.000E+00             0             0

   INTERPRETATION OF LAYER FLAGS:
                        INTERBLOCK     HORIZONTAL    DATA IN
         LAYER TYPE   TRANSMISSIVITY   ANISOTROPY   ARRAY VKA   WETTABILITY
 LAYER      (LAYTYP)      (LAYAVG)       (CHANI)      (LAYVKA)      (LAYWET)
 ---------------------------------------------------------------------------
    1      CONFINED      HARMONIC     1.000E+00    VERTICAL K  NON-WETTABLE

 WETTING CAPABILITY IS NOT ACTIVE IN ANY LAYER



              HYD. COND. ALONG ROWS FOR LAYER   1
 READING ON UNIT   15 WITH FORMAT: (81E15.6)           

      VERTICAL HYD. COND. =   1.00000     FOR LAYER   1

 WEL -- WELL PACKAGE, VERSION 7, 5/2/2005 INPUT READ FROM UNIT   20
 # WEL package for  MODFLOW-2005, generated by Flopy.
 No named parameters
 MAXIMUM OF      1 ACTIVE WELLS AT ONE TIME


     0 Well parameters

 PCG -- CONJUGATE-GRADIENT SOLUTION PACKAGE, VERSION 7, 5/2/2005
 # PCG package for  MODFLOW-2005, generated by Flopy.
 MAXIMUM OF     50 CALLS OF SOLUTION ROUTINE
 MAXIMUM OF     30 INTERNAL ITERATIONS PER CALL TO SOLUTION ROUTINE
 MATRIX PRECONDITIONING TYPE :    1



                                    SOLUTION BY THE CONJUGATE-GRADIENT METHOD
                                   -------------------------------------------
                    MAXIMUM NUMBER OF CALLS TO PCG ROUTINE =       50
                        MAXIMUM ITERATIONS PER CALL TO PCG =       30
                               MATRIX PRECONDITIONING TYPE =        1
        RELAXATION FACTOR (ONLY USED WITH PRECOND. TYPE 1) =    0.10000E+01
 PARAMETER OF POLYNOMIAL PRECOND. = 2 (2) OR IS CALCULATED :        0
                         HEAD CHANGE CRITERION FOR CLOSURE =    0.10000E-04
                     RESIDUAL CHANGE CRITERION FOR CLOSURE =    0.10000E-04
            PCG HEAD AND RESIDUAL CHANGE PRINTOUT INTERVAL =      999
     PRINTING FROM SOLVER IS LIMITED(1) OR SUPPRESSED (>1) =        3
                            STEADY-STATE DAMPING PARAMETER =    0.10000E+01
                               TRANSIENT DAMPING PARAMETER =    0.10000E+01


 ***Link-MT3DMS Package v7***
 OPENING LINK-MT3DMS OUTPUT FILE: mt3d_link.ftl                                                                                                                                                                                           
 ON UNIT NUMBER:    54
 FILE TYPE: UNFORMATTED
 HEADER OPTION: EXTENDED
 ***Link-MT3DMS Package v7***

1
                            STRESS PERIOD NO.    1, LENGTH =   1.000000    
                            -----------------------------------------------

                              NUMBER OF TIME STEPS =     1

                               MULTIPLIER FOR DELT =     1.000

                            INITIAL TIME STEP SIZE =   1.000000    

 WELL NO.  LAYER   ROW   COL   STRESS RATE         
 --------------------------------------------------
      1      1     26     16       1.000    

      1 WELL 

 SOLVING FOR HEAD 

 OUTPUT CONTROL FOR STRESS PERIOD    1   TIME STEP    1
    PRINT HEAD FOR ALL LAYERS
    PRINT BUDGET
    SAVE HEAD FOR ALL LAYERS
    SAVE BUDGET

 SAVING SATURATED THICKNESS AND FLOW TERMS ON UNIT   54 FOR MT3DMS
 BY THE LINK-MT3DMS PACKAGE V7 AT TIME STEP    1, STRESS PERIOD    1

1
              HEAD IN LAYER   1 AT END OF TIME STEP   1 IN STRESS PERIOD    1
  ---------------------------------------------------------------------------

            1           2           3           4           5           6           7           8           9          10
           11          12          13          14          15          16          17          18          19          20
           21          22          23          24          25          26          27          28          29          30
           31          32          33          34          35          36          37          38          39          40
           41          42          43          44          45          46          47          48          49          50
           51          52          53          54          55          56          57          58          59          60
           61          62          63          64          65          66          67          68          69          70
           71          72          73          74          75          76          77          78          79          80
           81
 ........................................................................................................................
   1    3.000       2.968       2.936       2.904       2.873       2.842       2.811       2.779       2.747       2.714    
        2.680       2.646       2.611       2.575       2.538       2.499       2.460       2.420       2.379       2.338    
        2.296       2.254       2.212       2.170       2.129       2.089       2.050       2.012       1.976       1.941    
        1.907       1.874       1.843       1.812       1.782       1.752       1.722       1.693       1.663       1.633    
        1.602       1.571       1.538       1.505       1.471       1.436       1.399       1.362       1.325       1.286    
        1.248       1.209       1.170       1.131       1.091       1.051       1.011      0.9698      0.9282      0.8858    
       0.8428      0.7992      0.7551      0.7106      0.6661      0.6216      0.5774      0.5336      0.4904      0.4478    
       0.4058      0.3644      0.3235      0.2830      0.2428      0.2027      0.1627      0.1226      8.2209E-02  4.1428E-02
        0.000    
   2    3.000       2.968       2.936       2.905       2.874       2.843       2.811       2.779       2.747       2.714    
        2.681       2.646       2.611       2.575       2.538       2.500       2.461       2.421       2.380       2.338    
        2.296       2.254       2.212       2.170       2.129       2.089       2.050       2.012       1.976       1.941    
        1.907       1.874       1.842       1.811       1.781       1.751       1.721       1.692       1.662       1.632    
        1.601       1.570       1.538       1.505       1.470       1.435       1.399       1.362       1.325       1.287    
        1.248       1.210       1.171       1.131       1.092       1.052       1.011      0.9705      0.9288      0.8864    
       0.8434      0.7997      0.7555      0.7111      0.6665      0.6220      0.5778      0.5340      0.4908      0.4482    
       0.4061      0.3647      0.3237      0.2831      0.2428      0.2026      0.1625      0.1223      8.1902E-02  4.1173E-02
        0.000    
   3    3.000       2.968       2.937       2.906       2.875       2.844       2.812       2.781       2.748       2.715    
        2.682       2.647       2.612       2.576       2.538       2.500       2.461       2.421       2.380       2.339    
        2.297       2.255       2.212       2.170       2.129       2.089       2.050       2.012       1.975       1.940    
        1.906       1.873       1.841       1.810       1.780       1.750       1.720       1.690       1.661       1.630    
        1.600       1.568       1.536       1.503       1.469       1.435       1.399       1.362       1.325       1.287    
        1.249       1.211       1.172       1.133       1.093       1.054       1.013      0.9722      0.9305      0.8881    
       0.8450      0.8013      0.7571      0.7125      0.6679      0.6233      0.5790      0.5352      0.4919      0.4491    
       0.4070      0.3654      0.3242      0.2835      0.2430      0.2026      0.1624      0.1220      8.1569E-02  4.0902E-02
        0.000    
   4    3.000       2.969       2.938       2.907       2.876       2.845       2.814       2.782       2.750       2.717    
        2.683       2.648       2.613       2.577       2.540       2.502       2.462       2.422       2.382       2.340    
        2.298       2.256       2.213       2.171       2.130       2.089       2.050       2.012       1.975       1.940    
        1.905       1.872       1.840       1.809       1.778       1.748       1.718       1.689       1.659       1.628    
        1.598       1.566       1.534       1.501       1.468       1.433       1.398       1.361       1.325       1.287    
        1.250       1.212       1.173       1.135       1.096       1.056       1.016      0.9752      0.9336      0.8913    
       0.8482      0.8044      0.7601      0.7154      0.6706      0.6259      0.5814      0.5374      0.4938      0.4509    
       0.4085      0.3666      0.3252      0.2842      0.2435      0.2029      0.1624      0.1219      8.1336E-02  4.0700E-02
        0.000    
   5    3.000       2.969       2.939       2.908       2.878       2.847       2.815       2.784       2.751       2.718    
        2.685       2.650       2.615       2.579       2.541       2.503       2.464       2.424       2.384       2.342    
        2.300       2.257       2.215       2.173       2.131       2.090       2.051       2.012       1.975       1.939    
        1.905       1.871       1.839       1.807       1.777       1.746       1.716       1.686       1.656       1.626    
        1.595       1.564       1.531       1.499       1.465       1.431       1.396       1.360       1.324       1.287    
        1.250       1.213       1.175       1.137       1.098       1.059       1.020      0.9791      0.9378      0.8957    
       0.8527      0.8090      0.7647      0.7199      0.6749      0.6300      0.5852      0.5409      0.4970      0.4536    
       0.4108      0.3686      0.3268      0.2854      0.2443      0.2034      0.1627      0.1219      8.1250E-02  4.0587E-02
        0.000    
   6    3.000       2.970       2.940       2.909       2.879       2.848       2.817       2.785       2.753       2.720    
        2.686       2.652       2.617       2.580       2.543       2.506       2.467       2.427       2.386       2.344    
        2.302       2.260       2.217       2.174       2.132       2.091       2.051       2.012       1.975       1.939    
        1.904       1.870       1.837       1.806       1.775       1.744       1.714       1.684       1.653       1.623    
        1.592       1.560       1.528       1.496       1.462       1.428       1.394       1.358       1.323       1.287    
        1.250       1.213       1.176       1.139       1.101       1.062       1.023      0.9832      0.9424      0.9007    
       0.8581      0.8146      0.7704      0.7257      0.6806      0.6354      0.5904      0.5456      0.5013      0.4575    
       0.4142      0.3714      0.3291      0.2873      0.2457      0.2044      0.1632      0.1222      8.1323E-02  4.0562E-02
        0.000    
   7    3.000       2.970       2.940       2.910       2.880       2.849       2.818       2.786       2.754       2.721    
        2.687       2.653       2.618       2.582       2.545       2.508       2.469       2.429       2.389       2.347    
        2.305       2.262       2.219       2.176       2.134       2.092       2.052       2.013       1.975       1.938    
        1.903       1.869       1.836       1.804       1.773       1.742       1.711       1.681       1.650       1.620    
        1.589       1.557       1.525       1.493       1.460       1.426       1.392       1.357       1.322       1.286    
        1.250       1.214       1.178       1.141       1.103       1.065       1.027      0.9872      0.9470      0.9057    
       0.8636      0.8205      0.7766      0.7320      0.6870      0.6418      0.5965      0.5514      0.5066      0.4623    
       0.4184      0.3751      0.3322      0.2897      0.2476      0.2058      0.1642      0.1228      8.1566E-02  4.0622E-02
        0.000    
   8    3.000       2.970       2.941       2.911       2.880       2.850       2.818       2.787       2.755       2.722    
        2.688       2.654       2.620       2.584       2.547       2.510       2.471       2.432       2.391       2.350    
        2.308       2.265       2.222       2.178       2.136       2.094       2.053       2.013       1.975       1.938    
        1.902       1.868       1.835       1.802       1.771       1.740       1.709       1.678       1.647       1.617    
        1.586       1.554       1.522       1.490       1.457       1.424       1.390       1.355       1.321       1.286    
        1.250       1.215       1.179       1.142       1.105       1.068       1.030      0.9909      0.9511      0.9104    
       0.8687      0.8261      0.7826      0.7383      0.6935      0.6483      0.6030      0.5577      0.5126      0.4678    
       0.4235      0.3795      0.3360      0.2929      0.2501      0.2077      0.1655      0.1236      8.2000E-02  4.0773E-02
        0.000    
   9    3.000       2.971       2.941       2.911       2.881       2.850       2.819       2.787       2.755       2.723    
        2.689       2.655       2.621       2.585       2.549       2.511       2.473       2.434       2.394       2.352    
        2.310       2.267       2.224       2.181       2.138       2.095       2.054       2.014       1.975       1.938    
        1.902       1.867       1.834       1.801       1.769       1.738       1.707       1.676       1.645       1.614    
        1.583       1.551       1.520       1.487       1.455       1.422       1.388       1.354       1.320       1.285    
        1.251       1.215       1.180       1.144       1.108       1.071       1.033      0.9943      0.9549      0.9146    
       0.8733      0.8311      0.7880      0.7441      0.6996      0.6547      0.6094      0.5641      0.5189      0.4738    
       0.4290      0.3846      0.3405      0.2967      0.2532      0.2101      0.1673      0.1248      8.2659E-02  4.1034E-02
        0.000    
  10    3.000       2.971       2.941       2.912       2.881       2.850       2.819       2.788       2.756       2.723    
        2.690       2.656       2.621       2.586       2.550       2.513       2.475       2.436       2.396       2.355    
        2.313       2.270       2.227       2.183       2.140       2.097       2.056       2.015       1.976       1.938    
        1.902       1.867       1.833       1.800       1.768       1.736       1.705       1.674       1.643       1.611    
        1.580       1.549       1.517       1.485       1.452       1.420       1.387       1.353       1.319       1.285    
        1.251       1.216       1.181       1.146       1.110       1.073       1.036      0.9974      0.9584      0.9184    
       0.8774      0.8355      0.7928      0.7493      0.7051      0.6604      0.6155      0.5703      0.5251      0.4799    
       0.4349      0.3901      0.3455      0.3011      0.2570      0.2131      0.1695      0.1263      8.3585E-02  4.1430E-02
        0.000    
  11    3.000       2.971       2.942       2.912       2.882       2.851       2.820       2.788       2.756       2.723    
        2.690       2.656       2.621       2.586       2.550       2.513       2.476       2.437       2.397       2.357    
        2.315       2.272       2.229       2.186       2.143       2.100       2.058       2.018       1.978       1.940    
        1.903       1.868       1.833       1.800       1.767       1.735       1.703       1.672       1.641       1.609    
        1.578       1.546       1.515       1.483       1.450       1.418       1.385       1.352       1.319       1.285    
        1.251       1.217       1.183       1.147       1.112       1.075       1.038       1.000      0.9616      0.9219    
       0.8812      0.8395      0.7971      0.7538      0.7100      0.6656      0.6210      0.5760      0.5310      0.4859    
       0.4408      0.3958      0.3509      0.3060      0.2613      0.2167      0.1723      0.1283      8.4823E-02  4.1988E-02
        0.000    
  12    3.000       2.971       2.942       2.912       2.882       2.851       2.820       2.788       2.756       2.723    
        2.690       2.656       2.621       2.586       2.550       2.513       2.476       2.437       2.398       2.357    
        2.316       2.274       2.232       2.189       2.146       2.103       2.062       2.021       1.981       1.943    
        1.906       1.870       1.835       1.801       1.768       1.735       1.703       1.671       1.639       1.608    
        1.576       1.544       1.512       1.480       1.448       1.416       1.383       1.351       1.318       1.285    
        1.251       1.218       1.184       1.149       1.114       1.078       1.041       1.003      0.9647      0.9251    
       0.8846      0.8432      0.8009      0.7580      0.7144      0.6704      0.6260      0.5814      0.5367      0.4918    
       0.4469      0.4018      0.3567      0.3114      0.2661      0.2209      0.1757      0.1308      8.6417E-02  4.2732E-02
        0.000    
  13    3.000       2.971       2.942       2.912       2.882       2.851       2.820       2.788       2.755       2.723    
        2.689       2.655       2.620       2.585       2.549       2.513       2.475       2.437       2.398       2.357    
        2.317       2.275       2.233       2.191       2.149       2.107       2.065       2.025       1.985       1.946    
        1.909       1.873       1.837       1.803       1.769       1.736       1.703       1.670       1.638       1.606    
        1.574       1.542       1.510       1.478       1.446       1.414       1.381       1.349       1.317       1.284    
        1.251       1.218       1.184       1.150       1.115       1.080       1.043       1.006      0.9674      0.9281    
       0.8878      0.8465      0.8045      0.7617      0.7184      0.6747      0.6307      0.5865      0.5421      0.4976    
       0.4528      0.4079      0.3627      0.3172      0.2715      0.2256      0.1796      0.1338      8.8375E-02  4.3675E-02
        0.000    
  14    3.000       2.971       2.942       2.912       2.882       2.851       2.820       2.788       2.755       2.722    
        2.689       2.654       2.620       2.584       2.548       2.511       2.474       2.435       2.396       2.357    
        2.316       2.275       2.234       2.192       2.151       2.109       2.068       2.028       1.989       1.950    
        1.913       1.876       1.840       1.805       1.771       1.737       1.704       1.671       1.638       1.605    
        1.573       1.540       1.508       1.476       1.444       1.411       1.379       1.347       1.315       1.283    
        1.250       1.217       1.184       1.150       1.116       1.081       1.045       1.008      0.9695      0.9305    
       0.8904      0.8494      0.8075      0.7650      0.7220      0.6786      0.6350      0.5911      0.5471      0.5029    
       0.4585      0.4137      0.3686      0.3230      0.2770      0.2305      0.1838      0.1371      9.0586E-02  4.4772E-02
        0.000    
  15    3.000       2.971       2.942       2.912       2.882       2.851       2.820       2.787       2.755       2.722    
        2.688       2.653       2.618       2.583       2.546       2.509       2.472       2.434       2.395       2.355    
        2.315       2.275       2.234       2.193       2.152       2.111       2.071       2.031       1.992       1.954    
        1.916       1.880       1.843       1.808       1.773       1.739       1.705       1.671       1.638       1.604    
        1.572       1.539       1.506       1.474       1.441       1.409       1.377       1.345       1.313       1.281    
        1.249       1.216       1.183       1.150       1.116       1.081       1.045       1.008      0.9707      0.9319    
       0.8921      0.8514      0.8099      0.7677      0.7250      0.6819      0.6386      0.5951      0.5514      0.5075    
       0.4633      0.4187      0.3737      0.3280      0.2818      0.2350      0.1877      0.1401      9.2727E-02  4.5869E-02
        0.000    
  16    3.000       2.971       2.942       2.912       2.882       2.851       2.819       2.787       2.754       2.721    
        2.687       2.652       2.617       2.581       2.545       2.507       2.470       2.431       2.393       2.353    
        2.313       2.273       2.233       2.193       2.152       2.112       2.073       2.033       1.995       1.957    
        1.919       1.883       1.846       1.811       1.775       1.741       1.706       1.672       1.638       1.604    
        1.571       1.537       1.504       1.472       1.439       1.407       1.375       1.343       1.311       1.279    
        1.247       1.215       1.182       1.149       1.115       1.080       1.045       1.008      0.9709      0.9324    
       0.8929      0.8524      0.8112      0.7693      0.7269      0.6842      0.6412      0.5980      0.5545      0.5109    
       0.4669      0.4224      0.3774      0.3317      0.2853      0.2382      0.1905      0.1425      9.4414E-02  4.6765E-02
        0.000    
  17    3.000       2.971       2.942       2.912       2.882       2.851       2.819       2.787       2.754       2.720    
        2.686       2.651       2.615       2.579       2.542       2.505       2.467       2.429       2.390       2.351    
        2.312       2.272       2.232       2.192       2.152       2.113       2.074       2.035       1.997       1.959    
        1.922       1.885       1.849       1.813       1.777       1.742       1.707       1.672       1.638       1.604    
        1.570       1.536       1.503       1.470       1.437       1.405       1.373       1.341       1.309       1.277    
        1.245       1.213       1.180       1.147       1.113       1.079       1.044       1.007      0.9702      0.9319    
       0.8927      0.8525      0.8115      0.7700      0.7279      0.6854      0.6427      0.5997      0.5564      0.5129    
       0.4690      0.4247      0.3797      0.3340      0.2875      0.2402      0.1923      0.1440      9.5528E-02  4.7384E-02
        0.000    
  18    3.000       2.972       2.942       2.913       2.882       2.851       2.819       2.787       2.753       2.719    
        2.685       2.649       2.614       2.577       2.540       2.503       2.465       2.427       2.388       2.349    
        2.310       2.271       2.231       2.192       2.153       2.114       2.075       2.037       1.999       1.961    
        1.924       1.887       1.851       1.815       1.779       1.743       1.708       1.673       1.638       1.604    
        1.569       1.535       1.502       1.468       1.436       1.403       1.371       1.339       1.307       1.275    
        1.243       1.211       1.178       1.145       1.112       1.077       1.042       1.006      0.9689      0.9307    
       0.8917      0.8517      0.8110      0.7697      0.7279      0.6856      0.6431      0.6003      0.5573      0.5139    
       0.4701      0.4257      0.3808      0.3351      0.2886      0.2413      0.1934      0.1449      9.6271E-02  4.7827E-02
        0.000    
  19    3.000       2.972       2.942       2.913       2.882       2.851       2.819       2.786       2.753       2.718    
        2.683       2.648       2.612       2.575       2.538       2.500       2.463       2.424       2.386       2.347    
        2.308       2.270       2.231       2.192       2.153       2.115       2.076       2.038       2.001       1.963    
        1.926       1.889       1.853       1.817       1.781       1.745       1.709       1.674       1.638       1.603    
        1.569       1.534       1.501       1.467       1.434       1.401       1.369       1.337       1.305       1.273    
        1.241       1.209       1.176       1.143       1.110       1.075       1.040       1.004      0.9670      0.9290    
       0.8901      0.8503      0.8098      0.7687      0.7270      0.6850      0.6427      0.6001      0.5571      0.5139    
       0.4702      0.4260      0.3811      0.3355      0.2891      0.2419      0.1940      0.1456      9.6922E-02  4.8251E-02
        0.000    
  20    3.000       2.971       2.942       2.912       2.881       2.850       2.818       2.785       2.751       2.717    
        2.682       2.646       2.610       2.573       2.536       2.499       2.461       2.423       2.385       2.346    
        2.308       2.269       2.231       2.192       2.154       2.116       2.078       2.040       2.003       1.966    
        1.929       1.892       1.855       1.819       1.782       1.746       1.710       1.674       1.638       1.603    
        1.568       1.533       1.499       1.465       1.432       1.399       1.367       1.334       1.302       1.270    
        1.238       1.206       1.174       1.141       1.107       1.073       1.038       1.002      0.9648      0.9269    
       0.8881      0.8484      0.8080      0.7670      0.7256      0.6837      0.6415      0.5991      0.5563      0.5132    
       0.4697      0.4256      0.3809      0.3355      0.2893      0.2424      0.1947      0.1464      9.7669E-02  4.8771E-02
        0.000    
  21    3.000       2.971       2.941       2.911       2.880       2.849       2.817       2.784       2.750       2.716    
        2.681       2.645       2.609       2.572       2.535       2.498       2.460       2.422       2.384       2.346    
        2.308       2.270       2.231       2.193       2.155       2.118       2.080       2.042       2.005       1.968    
        1.931       1.894       1.857       1.821       1.784       1.747       1.711       1.674       1.638       1.603    
        1.567       1.532       1.498       1.464       1.430       1.397       1.364       1.332       1.300       1.268    
        1.236       1.204       1.171       1.138       1.105       1.070       1.035      0.9992      0.9623      0.9244    
       0.8857      0.8461      0.8058      0.7650      0.7236      0.6819      0.6399      0.5976      0.5550      0.5120    
       0.4686      0.4248      0.3803      0.3352      0.2893      0.2427      0.1953      0.1472      9.8539E-02  4.9414E-02
        0.000    
  22    3.000       2.970       2.940       2.910       2.878       2.847       2.815       2.782       2.748       2.714    
        2.680       2.644       2.608       2.572       2.535       2.498       2.460       2.423       2.385       2.347    
        2.309       2.271       2.233       2.195       2.157       2.120       2.082       2.045       2.008       1.971    
        1.934       1.897       1.860       1.823       1.786       1.749       1.712       1.675       1.638       1.602    
        1.566       1.531       1.496       1.462       1.428       1.394       1.362       1.329       1.297       1.265    
        1.233       1.201       1.168       1.135       1.102       1.067       1.032      0.9964      0.9595      0.9217    
       0.8831      0.8436      0.8034      0.7627      0.7214      0.6798      0.6379      0.5957      0.5532      0.5104    
       0.4672      0.4236      0.3794      0.3345      0.2890      0.2427      0.1957      0.1479      9.9378E-02  5.0082E-02
        0.000    
  23    3.000       2.969       2.938       2.907       2.876       2.845       2.812       2.780       2.747       2.713    
        2.679       2.644       2.608       2.572       2.536       2.499       2.462       2.424       2.386       2.348    
        2.310       2.272       2.234       2.197       2.159       2.122       2.084       2.047       2.010       1.973    
        1.936       1.899       1.862       1.825       1.788       1.750       1.713       1.676       1.639       1.602    
        1.565       1.530       1.494       1.459       1.425       1.392       1.359       1.326       1.294       1.262    
        1.229       1.197       1.165       1.132       1.098       1.064       1.029      0.9934      0.9566      0.9189    
       0.8804      0.8411      0.8010      0.7603      0.7192      0.6777      0.6358      0.5937      0.5513      0.5086    
       0.4655      0.4220      0.3780      0.3334      0.2882      0.2423      0.1957      0.1482      9.9888E-02  5.0565E-02
        0.000    
  24    3.000       2.968       2.936       2.905       2.874       2.842       2.810       2.778       2.745       2.712    
        2.678       2.644       2.609       2.574       2.538       2.501       2.464       2.426       2.389       2.351    
        2.313       2.275       2.237       2.199       2.161       2.124       2.087       2.050       2.013       1.976    
        1.939       1.902       1.865       1.828       1.790       1.753       1.715       1.677       1.639       1.602    
        1.565       1.528       1.493       1.457       1.423       1.389       1.356       1.323       1.291       1.258    
        1.226       1.194       1.161       1.128       1.095       1.061       1.026      0.9903      0.9537      0.9162    
       0.8778      0.8386      0.7986      0.7581      0.7171      0.6756      0.6338      0.5917      0.5493      0.5066    
       0.4636      0.4202      0.3763      0.3319      0.2869      0.2413      0.1949      0.1478      9.9783E-02  5.0640E-02
        0.000    
  25    3.000       2.967       2.934       2.903       2.871       2.839       2.808       2.776       2.744       2.711    
        2.678       2.644       2.610       2.575       2.539       2.503       2.466       2.429       2.391       2.353    
        2.315       2.277       2.239       2.201       2.163       2.126       2.088       2.052       2.015       1.978    
        1.941       1.905       1.868       1.831       1.793       1.755       1.717       1.679       1.641       1.603    
        1.565       1.528       1.492       1.456       1.421       1.387       1.353       1.320       1.288       1.255    
        1.223       1.190       1.158       1.125       1.092       1.058       1.023      0.9872      0.9507      0.9134    
       0.8752      0.8361      0.7963      0.7559      0.7150      0.6736      0.6318      0.5897      0.5473      0.5045    
       0.4615      0.4181      0.3742      0.3299      0.2850      0.2396      0.1935      0.1466      9.8960E-02  5.0209E-02
        0.000    
  26    3.000       2.966       2.933       2.900       2.869       2.837       2.806       2.774       2.742       2.710    
        2.678       2.644       2.611       2.576       2.541       2.506       2.469       2.432       2.394       2.356    
        2.318       2.279       2.241       2.203       2.165       2.127       2.090       2.053       2.017       1.980    
        1.944       1.907       1.871       1.834       1.796       1.758       1.720       1.682       1.643       1.605    
        1.567       1.529       1.492       1.456       1.420       1.386       1.352       1.318       1.285       1.252    
        1.220       1.187       1.155       1.122       1.088       1.054       1.019      0.9840      0.9477      0.9105    
       0.8724      0.8336      0.7940      0.7537      0.7128      0.6715      0.6297      0.5876      0.5452      0.5024    
       0.4593      0.4158      0.3719      0.3275      0.2827      0.2373      0.1914      0.1448      9.7539E-02  4.9350E-02
        0.000    
  27    3.000       2.965       2.931       2.899       2.867       2.836       2.804       2.773       2.741       2.710    
        2.677       2.645       2.611       2.577       2.543       2.507       2.471       2.434       2.397       2.358    
        2.320       2.281       2.243       2.204       2.166       2.128       2.091       2.054       2.018       1.982    
        1.946       1.910       1.873       1.837       1.800       1.762       1.724       1.686       1.647       1.608    
        1.570       1.531       1.494       1.457       1.421       1.385       1.351       1.317       1.283       1.250    
        1.217       1.184       1.151       1.118       1.085       1.051       1.016      0.9806      0.9443      0.9073    
       0.8694      0.8307      0.7912      0.7511      0.7104      0.6692      0.6275      0.5854      0.5430      0.5002    
       0.4570      0.4134      0.3694      0.3250      0.2802      0.2349      0.1890      0.1427      9.5785E-02  4.8255E-02
        0.000    
  28    3.000       2.965       2.931       2.898       2.866       2.835       2.803       2.772       2.741       2.709    
        2.677       2.645       2.612       2.578       2.544       2.509       2.473       2.436       2.398       2.360    
        2.321       2.282       2.243       2.205       2.166       2.128       2.091       2.055       2.019       1.983    
        1.947       1.912       1.876       1.841       1.804       1.767       1.730       1.691       1.653       1.614    
        1.575       1.536       1.497       1.460       1.423       1.386       1.351       1.316       1.282       1.248    
        1.215       1.182       1.148       1.115       1.081       1.047       1.012      0.9767      0.9405      0.9035    
       0.8657      0.8272      0.7879      0.7480      0.7075      0.6665      0.6249      0.5830      0.5406      0.4978    
       0.4546      0.4110      0.3670      0.3225      0.2777      0.2324      0.1867      0.1405      9.4027E-02  4.7159E-02
        0.000    
  29    3.000       2.965       2.931       2.898       2.866       2.834       2.803       2.772       2.740       2.709    
        2.677       2.645       2.612       2.578       2.544       2.509       2.473       2.436       2.398       2.360    
        2.321       2.282       2.243       2.204       2.166       2.128       2.091       2.055       2.019       1.984    
        1.949       1.914       1.879       1.844       1.809       1.773       1.736       1.698       1.660       1.621    
        1.581       1.542       1.503       1.464       1.426       1.389       1.352       1.316       1.281       1.247    
        1.213       1.179       1.145       1.111       1.077       1.043       1.008      0.9722      0.9360      0.8990    
       0.8614      0.8230      0.7839      0.7442      0.7040      0.6632      0.6219      0.5801      0.5379      0.4952    
       0.4521      0.4086      0.3646      0.3202      0.2754      0.2302      0.1846      0.1387      9.2592E-02  4.6285E-02
        0.000    
  30    3.000       2.965       2.932       2.899       2.866       2.835       2.803       2.772       2.740       2.709    
        2.677       2.645       2.612       2.578       2.544       2.509       2.473       2.436       2.398       2.359    
        2.320       2.281       2.241       2.202       2.164       2.127       2.090       2.054       2.019       1.984    
        1.950       1.916       1.882       1.848       1.813       1.778       1.742       1.705       1.667       1.628    
        1.589       1.549       1.509       1.470       1.431       1.392       1.354       1.318       1.281       1.246    
        1.211       1.176       1.142       1.107       1.073       1.038       1.003      0.9671      0.9308      0.8939    
       0.8563      0.8181      0.7793      0.7399      0.7000      0.6595      0.6185      0.5770      0.5350      0.4926    
       0.4497      0.4063      0.3625      0.3182      0.2736      0.2285      0.1832      0.1375      9.1703E-02  4.5788E-02
        0.000    
  31    3.000       2.966       2.932       2.899       2.867       2.835       2.803       2.772       2.740       2.709    
        2.677       2.644       2.611       2.578       2.543       2.508       2.472       2.434       2.396       2.357    
        2.318       2.279       2.239       2.200       2.162       2.125       2.089       2.053       2.019       1.985    
        1.951       1.918       1.884       1.851       1.817       1.782       1.747       1.711       1.674       1.635    
        1.596       1.557       1.516       1.476       1.436       1.396       1.357       1.319       1.282       1.245    
        1.209       1.173       1.138       1.103       1.068       1.033      0.9975      0.9617      0.9254      0.8885    
       0.8511      0.8132      0.7747      0.7356      0.6960      0.6558      0.6151      0.5739      0.5322      0.4900    
       0.4474      0.4042      0.3606      0.3166      0.2722      0.2274      0.1823      0.1369      9.1354E-02  4.5668E-02
        0.000    
  32    3.000       2.966       2.933       2.900       2.867       2.835       2.804       2.772       2.740       2.709    
        2.676       2.644       2.611       2.577       2.542       2.507       2.470       2.433       2.394       2.355    
        2.316       2.276       2.237       2.198       2.160       2.123       2.087       2.052       2.018       1.985    
        1.952       1.919       1.886       1.854       1.820       1.786       1.752       1.716       1.679       1.642    
        1.603       1.563       1.523       1.482       1.441       1.400       1.360       1.321       1.282       1.244    
        1.207       1.170       1.134       1.099       1.063       1.028      0.9923      0.9564      0.9202      0.8836    
       0.8465      0.8089      0.7707      0.7320      0.6927      0.6528      0.6124      0.5714      0.5299      0.4879    
       0.4454      0.4024      0.3590      0.3152      0.2710      0.2265      0.1817      0.1366      9.1279E-02  4.5749E-02
        0.000    
  33    3.000       2.966       2.933       2.900       2.868       2.835       2.804       2.772       2.740       2.708    
        2.676       2.644       2.610       2.576       2.541       2.506       2.469       2.431       2.392       2.353    
        2.314       2.274       2.235       2.196       2.159       2.122       2.086       2.052       2.018       1.985    
        1.952       1.920       1.888       1.856       1.823       1.789       1.755       1.720       1.684       1.647    
        1.608       1.568       1.528       1.487       1.445       1.403       1.362       1.322       1.282       1.243    
        1.205       1.167       1.131       1.095       1.059       1.023      0.9878      0.9521      0.9161      0.8798    
       0.8431      0.8058      0.7680      0.7296      0.6905      0.6509      0.6106      0.5697      0.5283      0.4863    
       0.4438      0.4009      0.3575      0.3138      0.2698      0.2255      0.1809      0.1362      9.1124E-02  4.5777E-02
        0.000    
  34    3.000       2.966       2.933       2.900       2.867       2.835       2.803       2.772       2.740       2.708    
        2.676       2.643       2.610       2.575       2.540       2.504       2.467       2.429       2.391       2.351    
        2.312       2.272       2.233       2.195       2.157       2.121       2.086       2.051       2.018       1.985    
        1.953       1.921       1.889       1.857       1.825       1.792       1.758       1.723       1.687       1.650    
        1.611       1.572       1.531       1.489       1.447       1.405       1.363       1.321       1.281       1.241    
        1.202       1.164       1.127       1.091       1.055       1.020      0.9844      0.9490      0.9134      0.8774    
       0.8411      0.8042      0.7667      0.7285      0.6897      0.6501      0.6099      0.5690      0.5275      0.4853    
       0.4427      0.3996      0.3562      0.3124      0.2685      0.2243      0.1799      0.1354      9.0661E-02  4.5582E-02
        0.000    
  35    3.000       2.966       2.933       2.900       2.867       2.835       2.803       2.771       2.739       2.707    
        2.675       2.642       2.609       2.574       2.539       2.503       2.466       2.428       2.389       2.350    
        2.310       2.271       2.232       2.193       2.156       2.120       2.085       2.051       2.018       1.986    
        1.954       1.922       1.891       1.859       1.827       1.794       1.760       1.725       1.689       1.652    
        1.614       1.574       1.533       1.490       1.448       1.405       1.362       1.320       1.279       1.239    
        1.200       1.162       1.124       1.088       1.052       1.017      0.9821      0.9470      0.9118      0.8763    
       0.8403      0.8038      0.7666      0.7287      0.6900      0.6505      0.6102      0.5692      0.5274      0.4850    
       0.4421      0.3988      0.3551      0.3112      0.2671      0.2229      0.1787      0.1344      8.9877E-02  4.5147E-02
        0.000    
  36    3.000       2.966       2.933       2.900       2.867       2.835       2.802       2.770       2.738       2.706    
        2.674       2.641       2.607       2.573       2.538       2.502       2.465       2.427       2.388       2.349    
        2.309       2.270       2.231       2.193       2.156       2.120       2.085       2.051       2.018       1.986    
        1.954       1.923       1.892       1.860       1.828       1.795       1.761       1.726       1.690       1.653    
        1.614       1.574       1.533       1.490       1.447       1.404       1.361       1.318       1.277       1.236    
        1.197       1.159       1.122       1.086       1.051       1.015      0.9807      0.9460      0.9111      0.8760    
       0.8404      0.8042      0.7673      0.7297      0.6911      0.6517      0.6113      0.5701      0.5281      0.4854    
       0.4421      0.3983      0.3543      0.3101      0.2658      0.2216      0.1774      0.1332      8.8929E-02  4.4581E-02
        0.000    
  37    3.000       2.966       2.933       2.900       2.867       2.834       2.802       2.770       2.737       2.705    
        2.673       2.640       2.606       2.572       2.537       2.501       2.464       2.426       2.387       2.348    
        2.308       2.269       2.230       2.193       2.156       2.120       2.086       2.052       2.019       1.987    
        1.955       1.924       1.892       1.861       1.829       1.796       1.762       1.727       1.691       1.653    
        1.614       1.573       1.531       1.488       1.445       1.402       1.358       1.316       1.274       1.234    
        1.195       1.157       1.120       1.084       1.049       1.014      0.9799      0.9455      0.9110      0.8762    
       0.8409      0.8050      0.7684      0.7310      0.6926      0.6532      0.6128      0.5715      0.5292      0.4862    
       0.4425      0.3983      0.3539      0.3094      0.2649      0.2205      0.1762      0.1321      8.8061E-02  4.4051E-02
        0.000    
  38    3.000       2.966       2.933       2.899       2.866       2.834       2.801       2.769       2.736       2.704    
        2.672       2.639       2.605       2.571       2.535       2.499       2.462       2.424       2.386       2.347    
        2.308       2.269       2.231       2.193       2.156       2.121       2.086       2.053       2.020       1.988    
        1.956       1.925       1.893       1.862       1.829       1.796       1.762       1.727       1.690       1.652    
        1.612       1.571       1.529       1.486       1.442       1.399       1.356       1.314       1.272       1.232    
        1.193       1.156       1.119       1.084       1.048       1.014      0.9797      0.9455      0.9112      0.8766    
       0.8416      0.8060      0.7696      0.7323      0.6941      0.6548      0.6144      0.5729      0.5305      0.4872    
       0.4432      0.3987      0.3540      0.3092      0.2644      0.2198      0.1755      0.1314      8.7488E-02  4.3703E-02
        0.000    
  39    3.000       2.966       2.933       2.899       2.866       2.833       2.801       2.768       2.736       2.703    
        2.671       2.637       2.604       2.569       2.534       2.498       2.461       2.424       2.385       2.347    
        2.308       2.269       2.231       2.193       2.157       2.122       2.087       2.054       2.021       1.989    
        1.957       1.926       1.894       1.862       1.830       1.796       1.762       1.726       1.689       1.651    
        1.610       1.569       1.526       1.483       1.440       1.396       1.353       1.311       1.270       1.231    
        1.192       1.155       1.119       1.083       1.048       1.014      0.9797      0.9457      0.9115      0.8771    
       0.8422      0.8068      0.7705      0.7334      0.6952      0.6560      0.6156      0.5741      0.5316      0.4882    
       0.4440      0.3993      0.3544      0.3093      0.2644      0.2197      0.1753      0.1312      8.7289E-02  4.3591E-02
        0.000    
  40    3.000       2.966       2.933       2.899       2.866       2.833       2.800       2.768       2.735       2.703    
        2.670       2.637       2.603       2.569       2.533       2.497       2.461       2.423       2.385       2.346    
        2.308       2.269       2.231       2.194       2.158       2.122       2.088       2.055       2.022       1.990    
        1.958       1.927       1.895       1.863       1.830       1.796       1.762       1.726       1.688       1.649    
        1.608       1.567       1.524       1.481       1.437       1.394       1.351       1.310       1.269       1.230    
        1.192       1.155       1.118       1.083       1.048       1.014      0.9799      0.9460      0.9119      0.8776    
       0.8428      0.8074      0.7712      0.7341      0.6960      0.6568      0.6164      0.5749      0.5324      0.4889    
       0.4447      0.3999      0.3549      0.3097      0.2647      0.2199      0.1754      0.1313      8.7370E-02  4.3657E-02
        0.000    
  41    3.000       2.966       2.933       2.899       2.866       2.833       2.800       2.767       2.735       2.702    
        2.669       2.636       2.602       2.568       2.533       2.497       2.460       2.423       2.385       2.346    
        2.308       2.269       2.232       2.194       2.158       2.123       2.089       2.055       2.023       1.990    
        1.959       1.927       1.895       1.863       1.830       1.796       1.761       1.725       1.687       1.648    
        1.607       1.565       1.522       1.479       1.436       1.393       1.350       1.309       1.269       1.229    
        1.191       1.154       1.118       1.083       1.048       1.014      0.9801      0.9462      0.9122      0.8779    
       0.8431      0.8077      0.7715      0.7345      0.6964      0.6572      0.6168      0.5753      0.5328      0.4893    
       0.4451      0.4003      0.3552      0.3100      0.2650      0.2201      0.1756      0.1314      8.7526E-02  4.3769E-02
        0.000    

 HEAD WILL BE SAVED ON UNIT   51 AT END OF TIME STEP    1, STRESS PERIOD    1
1
  VOLUMETRIC BUDGET FOR ENTIRE MODEL AT END OF TIME STEP    1, STRESS PERIOD   1
  ------------------------------------------------------------------------------

     CUMULATIVE VOLUMES      L**3       RATES FOR THIS TIME STEP      L**3/T
     ------------------                 ------------------------

           IN:                                      IN:
           ---                                      ---
             STORAGE =           0.0000               STORAGE =           0.0000
       CONSTANT HEAD =        2750.3665         CONSTANT HEAD =        2750.3665
               WELLS =           1.0000                 WELLS =           1.0000

            TOTAL IN =        2751.3665              TOTAL IN =        2751.3665

          OUT:                                     OUT:
          ----                                     ----
             STORAGE =           0.0000               STORAGE =           0.0000
       CONSTANT HEAD =        2751.3665         CONSTANT HEAD =        2751.3665
               WELLS =           0.0000                 WELLS =           0.0000

           TOTAL OUT =        2751.3665             TOTAL OUT =        2751.3665

            IN - OUT =           0.0000              IN - OUT =           0.0000

 PERCENT DISCREPANCY =           0.00     PERCENT DISCREPANCY =           0.00






         TIME SUMMARY AT END OF TIME STEP    1 IN STRESS PERIOD    1
                    SECONDS     MINUTES      HOURS       DAYS        YEARS
                    -----------------------------------------------------------
   TIME STEP LENGTH  86400.      1440.0      24.000      1.0000     2.73785E-03
 STRESS PERIOD TIME  86400.      1440.0      24.000      1.0000     2.73785E-03
         TOTAL TIME  86400.      1440.0      24.000      1.0000     2.73785E-03
1

 Run end date and time (yyyy/mm/dd hh:mm:ss): 2020/05/23 16:04:05
 Elapsed run time:  0.036 Seconds

