 LISTING FILE: case1c_mt.list
                         UNIT  16

 OPENING mt3d_link.ftl
 FILE TYPE:FTL   UNIT  10

 OPENING case1c_mt.btn
 FILE TYPE:BTN   UNIT  31

 OPENING case1c_mt.adv
 FILE TYPE:ADV   UNIT  32

 OPENING case1c_mt.dsp
 FILE TYPE:DSP   UNIT  33

 OPENING case1c_mt.rct
 FILE TYPE:RCT   UNIT  36

 OPENING case1c_mt.ssm
 FILE TYPE:SSM   UNIT  34

 OPENING case1c_mt.gcg
 FILE TYPE:GCG   UNIT  35

                              +++++++++++++++++++++++++++++++++++++++++++++++++++++++++++++++++++++++
                              +                                                                     +
                              +                               MT3DMS                                +
                              +             A Modular 3D Multi-Species Transport Model              +
                              +    For Simulation of Advection, Dispersion and Chemical Reactions   +
                              +                of Contaminants in Groundwater Systems               +
                              +                                                                     +
                              +++++++++++++++++++++++++++++++++++++++++++++++++++++++++++++++++++++++

  ----- 
 | M T | ## BTN for MT3DMS, generated by Flopy.                                          
 | 3 D | ##                                                                              
  ----- 
 THE TRANSPORT MODEL CONSISTS OF     1 LAYER(S)    1 ROW(S)  101 COLUMN(S)
 NUMBER OF STRESS PERIOD(S) FOR TRANSPORT SIMULATION =    1
 NUMBER OF ALL COMPONENTS INCLUDED IN SIMULATION =    1
 NUMBER OF MOBILE COMPONENTS INCLUDED IN SIMULATION =    1
 UNIT FOR TIME IS D   ;  UNIT FOR LENGTH IS M   ;  UNIT FOR MASS IS KG  
 OPTIONAL PACKAGES INCLUDED IN CURRENT SIMULATION:
  o ADV   ON UNIT 32
  o DSP   ON UNIT 33
  o SSM   ON UNIT 34
  o RCT   ON UNIT 36
  o GCG   ON UNIT 35

 BTN5 -- BASIC TRANSPORT PACKAGE, VERSION 5, FEBRUARY 2010, INPUT READ FROM UNIT 31
       1820 ELEMENTS OF THE  X ARRAY USED BY THE BTN PACKAGE
        102 ELEMENTS OF THE IX ARRAY USED BY THE BTN PACKAGE

 FMI5 -- FLOW MODEL INTERFACE PACKAGE, VERSION 5, FEBRUARY 2010, INPUT READ FROM UNIT 10
 FLOW MODEL IS STEADY-STATE
 FLOW MODEL CONTAINS CONSTANT-HEAD CELLS

 ADV5 -- ADVECTION PACKAGE, VERSION 5, FEBRUARY 2010, INPUT READ FROM UNIT 32
 ADVECTION IS SOLVED WITH THE [MMOC] SCHEME
 COURANT NUMBER ALLOWED IN SOLVING THE ADVECTION TERM = 0.500    
    2400000 ELEMENTS OF THE  X ARRAY USED BY THE ADV PACKAGE
     800101 ELEMENTS OF THE IX ARRAY USED BY THE ADV PACKAGE

 DSP5 -- DISPERSION PACKAGE, VERSION 5, FEBRUARY 2010, INPUT READ FROM UNIT 33
       1113 ELEMENTS OF THE  X ARRAY USED BY THE DSP PACKAGE
          0 ELEMENTS OF THE IX ARRAY USED BY THE DSP PACKAGE

 SSM5 -- SINK & SOURCE MIXING PACKAGE, VERSION 5, FEBRUARY 2010, INPUT READ FROM UNIT 34
 HEADER LINE OF THE SSM PACKAGE INPUT FILE:
  F F F F F F F F F F F F F F F F                                                                                                                                                                        
 MAJOR STRESS COMPONENTS PRESENT IN THE FLOW MODEL:
 MAXIMUM NUMBER OF POINT SINKS/SOURCES =       2
         26 ELEMENTS OF THE  X ARRAY USED BY THE SSM PACKAGE
          0 ELEMENTS OF THE IX ARRAY BY THE SSM PACKAGE

 RCT5 -- CHEMICAL REACTION PACKAGE, VERSION 5, FEBRUARY 2010, INPUT READ FROM UNIT 36
 TYPE OF SORPTION SELECTED IS [LINEAR]
 FIRST-ORDER IRREVERSIBLE REACTION [RADIOACTIVE DECAY OR BIODEGRADATION] IS SIMULATED
 REACTION COEFFICIENTS ASSIGNED CELL-BY-CELL
 INITIAL SORBED/IMMOBILE PHASE CONCENTRATION ASSIGNED BY DEFAULT
        505 ELEMENTS OF THE  X ARRAY USED BY THE RCT PACKAGE
          0 ELEMENTS OF THE IX ARRAY USED BY THE RCT PACKAGE

 GCG5 -- GENERALIZED CONJUGATE GRADIENT SOLVER PACKAGE, VERSION 5, FEBRUARY 2010 INPUT READ FROM UNIT 35
 MAXIMUM OF    1 OUTER ITERATIONS
        AND   50 INNER ITERATIONS ALLOWED FOR CLOSURE
 THE PRECONDITIONING TYPE SELECTED IS MODIFIED INCOMPLETE CHOLESKY (MIC).
 DISPERSION CROSS TERMS LUMPED INTO RIGHT-HAND-SIDE
       2272 ELEMENTS OF THE  X ARRAY USED BY THE GCG PACKAGE
        150 ELEMENTS OF THE IX ARRAY USED BY THE GCG PACKAGE

 ..........................................
 ELEMENTS OF THE  X ARRAY USED =   2405737
 ELEMENTS OF THE IX ARRAY USED =    800354
 ..........................................

 LAYER NUMBER  AQUIFER TYPE
 ------------  ------------
       1            0
                                       WIDTH ALONG ROWS (DELR)  =   10.00000    
                                       WIDTH ALONG COLS (DELC)  =   1.000000    
                                       TOP ELEV. OF 1ST LAYER   =   0.000000    
                                       CELL THICKNESS (DZ)      =   1.000000     FOR LAYER  1
                                       POROSITY                 =  0.2500000     FOR LAYER  1

                     CONCN. BOUNDARY ARRAY    FOR LAYER  1 READ ON UNIT 31 USING FORMAT: "           (101I10) "
                     ------------------------------------------------------------------------------------------

                     INITIAL CONC.: COMP.  01 FOR LAYER  1 READ ON UNIT 31 USING FORMAT: "         (101E15.6) "
                     ------------------------------------------------------------------------------------------

 VALUE INDICATING INACTIVE CONCENTRATION CELLS =   0.1000000E+31
 MINIMUM SATURATED THICKNESS [THKMIN] ALLOWED =  0.0100 OF TOTAL CELL THICKNESS


 OUTPUT CONTROL OPTIONS
 ----------------------

 DO NOT PRINT CELL CONCENTRATION
 DO NOT PRINT PARTICLE NUMBER IN EACH CELL
 DO NOT PRINT RETARDATION FACTOR
 DO NOT PRINT DISPERSION COEFFICIENT
 SAVE DISSOLVED PHASE CONCENTRATIONS IN UNFORMATTED FILES [MT3Dnnn.UCN]
  FOR EACH SPECIES ON UNITS 201 AND ABOVE
 SAVE SORBED/IMMOBILE PHASE CONCENTRATIONS IN UNFORMATTED FILES [MT3DnnnS.UCN]
  FOR EACH SPECIES ON UNITS 301 AND ABOVE, IF SORPTION/MASS TRANSFER SIMULATED

 NUMBER OF TIMES AT WHICH SIMULATION RESULTS ARE SAVED =    0

 NUMBER OF OBSERVATION POINTS =    0

 SAVE ONE-LINE SUMMARY OF MASS BUDGETS IN FILES [MT3Dnnn.MAS]
  FOR EACH SPECIES ON UNITS 601 AND ABOVE, EVERY  1 TRANSPORT STEPS

 MAXIMUM LENGTH ALONG THE X (J) AXIS =   1010.000    
 MAXIMUM LENGTH ALONG THE Y (I) AXIS =   1.000000    
 MAXIMUM LENGTH ALONG THE Z (K) AXIS =   1.000000    


 ADVECTION SOLUTION OPTIONS
 --------------------------

 ADVECTION IS SOLVED WITH THE [MMOC] SCHEME
 COURANT NUMBER ALLOWED IN SOLVING THE ADVECTION TERM = 0.500    
 MAXIMUM NUMBER OF MOVING PARTICLES ALLOWED =  800000
 METHOD FOR PARTICLE TRACKING IS [MIXED ORDER]
 CONCENTRATION WEIGHTING FACTOR [WD] =     0.500
 SCHEME FOR CONCENTRATION INTERPOLATION IS [LINEAR]
 PARTICLES FOR APPROXIMATING A SINK CELL IN THE [MMOC] SCHEME
 ARE PLACED ON  1 VERTICAL PLANE(S) WITHIN CELL BLOCK
 NUMBER OF PARTICLES USED TO APPROXIMATE A SINK CELL IN THE [MMOC] SCHEME =   4


 DISPERSION INPUT PARAMETERS
 ---------------------------

                                       LONG. DISPERSIVITY (AL)  =   10.00000     FOR LAYER  1
                                       H. TRANS./LONG. DISP.    =  0.1000000    
                                       V. TRANS./LONG. DISP.    =  0.1000000E-01
                                       DIFFUSION COEFFICIENT    =  0.1000000E-08


 SORPTION AND 1ST/0TH ORDER REACTION PARAMETERS
 ----------------------------------------------

                                       BULK DENSITY (RHOB)      =  0.2500000     FOR LAYER  1
                                       1ST SORP. COEF. COMP. 01 =   4.000000     FOR LAYER  1
                                       2ND SORP. COEF. COMP. 01 =   0.000000     FOR LAYER  1
                                       SOLUTE RXN RATE: COMP 01 =   0.000000     FOR LAYER  1
                                       SORBED RXN RATE: COMP 01 =   0.000000     FOR LAYER  1

 MAXIMUM STEPSIZE WHICH MEETS STABILITY CRITERION OF THE REACTION TERM
 = 0.1000E+31 AT K=   0, I=   0, J=   0



                                               SOLUTION BY THE GENERALIZED CONJUGATE GRADIENT METHOD
                                               -----------------------------------------------------
                                     MAXIMUM OUTER ITERATIONS ALLOWED FOR CLOSURE =        1
                                     MAXIMUM INNER ITERATIONS ALLOWED FOR CLOSURE =       50
                                                    PRECONDITIONING TYPE SELECTED =    3
                                                           ACCELERATION PARAMETER =     1.0000    
                                       CONCENTRATION CHANGE CRITERION FOR CLOSURE =    0.10000E-04
                                       GCG CONCENTRATION CHANGE PRINTOUT INTERVAL =      999


                                   ++++++++++++++++++++++++++++++++++++++++++++++++++++++++++++++
                                                       STRESS PERIOD NO.  001
                                   ++++++++++++++++++++++++++++++++++++++++++++++++++++++++++++++


 LENGTH OF CURRENT STRESS PERIOD =   2000.000    
 NUMBER OF TIME STEPS FOR CURRENT STRESS PERIOD =    1
 TIME STEP MULTIPLIER USED IN FLOW SOLUTION =   1.000000    

 ***Type of Transport Simulation is TRANSIENT

 USER-SPECIFIED TRANSPORT STEPSIZE =   0.000000    D   
 MAXIMUM NUMBER OF TRANSPORT STEPS ALLOWED  IN ONE FLOW TIME STEP =     50000
 MULTIPLIER FOR SUCCESSIVE TRANSPORT STEPS  [USED IN IMPLICIT SCHEMES] =     1.000
 MAXIMUM TRANSPORT STEP SIZE  [USED IN IMPLICIT SCHEMES] =   0.000000    D   

 NO. OF POINT SINKS/SOURCES OF SPECIFIED CONCONCENTRATIONS =    0 IN STRESS PERIOD  1


                                          ================================================
                                                         TIME STEP NO.  001
                                          ================================================

 FROM TIME =   0.0000     TO    2000.0    


                    "THKSAT          " FLOW TERMS FOR TIME STEP  1, STRESS PERIOD  1 READ UNFORMATTED ON UNIT 10
                    --------------------------------------------------------------------------------------------

                    "QXX             " FLOW TERMS FOR TIME STEP  1, STRESS PERIOD  1 READ UNFORMATTED ON UNIT 10
                    --------------------------------------------------------------------------------------------

 MAXIMUM STEPSIZE DURING WHICH ANY PARTICLE CANNOT MOVE MORE THAN ONE CELL
 =  41.67    (WHEN MIN. R.F.=1)  AT K=   1, I=   1, J=   2

 MAXIMUM STEPSIZE WHICH MEETS STABILITY CRITERION OF THE ADVECTION TERM
 (FOR PURE FINITE-DIFFERENCE OPTION, MIXELM=0) 
 =  41.67    (WHEN MIN. R.F.=1)  AT K=   1, I=   1, J=   2

                    "CNH             " FLOW TERMS FOR TIME STEP  1, STRESS PERIOD  1 READ UNFORMATTED ON UNIT 10
                    --------------------------------------------------------------------------------------------


 TOTAL NUMBER OF POINT SOURCES/SINKS PRESENT IN THE FLOW MODEL =     2

 MAXIMUM STEPSIZE WHICH MEETS STABILITY CRITERION OF THE SINK & SOURCE TERM
 =  41.67    (WHEN MIN. R.F.=1)  AT K=   1, I=   1, J=   1

 MAXIMUM STEPSIZE WHICH MEETS STABILITY CRITERION OF THE DISPERSION TERM
 =  20.83    (WHEN MIN. R.F.=1)  AT K=   1, I=   1, J=   1


     1 CALLS TO GCG PACKAGE FOR TRANSPORT TIME STEP   1 IN FLOW TIME STEP   1 STRESS PERIOD   1
     2 TOTAL ITERATIONS
     1 CALLS TO GCG PACKAGE FOR TRANSPORT TIME STEP   2 IN FLOW TIME STEP   1 STRESS PERIOD   1
     2 TOTAL ITERATIONS
     1 CALLS TO GCG PACKAGE FOR TRANSPORT TIME STEP   3 IN FLOW TIME STEP   1 STRESS PERIOD   1
     2 TOTAL ITERATIONS
     1 CALLS TO GCG PACKAGE FOR TRANSPORT TIME STEP   4 IN FLOW TIME STEP   1 STRESS PERIOD   1
     2 TOTAL ITERATIONS
     1 CALLS TO GCG PACKAGE FOR TRANSPORT TIME STEP   5 IN FLOW TIME STEP   1 STRESS PERIOD   1
     2 TOTAL ITERATIONS
     1 CALLS TO GCG PACKAGE FOR TRANSPORT TIME STEP   6 IN FLOW TIME STEP   1 STRESS PERIOD   1
     2 TOTAL ITERATIONS
     1 CALLS TO GCG PACKAGE FOR TRANSPORT TIME STEP   7 IN FLOW TIME STEP   1 STRESS PERIOD   1
     2 TOTAL ITERATIONS
     1 CALLS TO GCG PACKAGE FOR TRANSPORT TIME STEP   8 IN FLOW TIME STEP   1 STRESS PERIOD   1
     2 TOTAL ITERATIONS
     1 CALLS TO GCG PACKAGE FOR TRANSPORT TIME STEP   9 IN FLOW TIME STEP   1 STRESS PERIOD   1
     2 TOTAL ITERATIONS
     1 CALLS TO GCG PACKAGE FOR TRANSPORT TIME STEP  10 IN FLOW TIME STEP   1 STRESS PERIOD   1
     2 TOTAL ITERATIONS
     1 CALLS TO GCG PACKAGE FOR TRANSPORT TIME STEP  11 IN FLOW TIME STEP   1 STRESS PERIOD   1
     2 TOTAL ITERATIONS
     1 CALLS TO GCG PACKAGE FOR TRANSPORT TIME STEP  12 IN FLOW TIME STEP   1 STRESS PERIOD   1
     2 TOTAL ITERATIONS
     1 CALLS TO GCG PACKAGE FOR TRANSPORT TIME STEP  13 IN FLOW TIME STEP   1 STRESS PERIOD   1
     2 TOTAL ITERATIONS
     1 CALLS TO GCG PACKAGE FOR TRANSPORT TIME STEP  14 IN FLOW TIME STEP   1 STRESS PERIOD   1
     2 TOTAL ITERATIONS
     1 CALLS TO GCG PACKAGE FOR TRANSPORT TIME STEP  15 IN FLOW TIME STEP   1 STRESS PERIOD   1
     2 TOTAL ITERATIONS
     1 CALLS TO GCG PACKAGE FOR TRANSPORT TIME STEP  16 IN FLOW TIME STEP   1 STRESS PERIOD   1
     2 TOTAL ITERATIONS
     1 CALLS TO GCG PACKAGE FOR TRANSPORT TIME STEP  17 IN FLOW TIME STEP   1 STRESS PERIOD   1
     2 TOTAL ITERATIONS
     1 CALLS TO GCG PACKAGE FOR TRANSPORT TIME STEP  18 IN FLOW TIME STEP   1 STRESS PERIOD   1
     2 TOTAL ITERATIONS
     1 CALLS TO GCG PACKAGE FOR TRANSPORT TIME STEP  19 IN FLOW TIME STEP   1 STRESS PERIOD   1
     2 TOTAL ITERATIONS
     1 CALLS TO GCG PACKAGE FOR TRANSPORT TIME STEP  20 IN FLOW TIME STEP   1 STRESS PERIOD   1
     2 TOTAL ITERATIONS
  MAXIMUM CONCENTRATION CHANGES FOR EACH ITERATION:
  MAX. CHANGE LAYER,ROW,COL MAX. CHANGE LAYER,ROW,COL MAX. CHANGE LAYER,ROW,COL MAX. CHANGE LAYER,ROW,COL MAX. CHANGE LAYER,ROW,COL
 ------------------------------------------------------------------------------------------------------------------------------------
   0.1223E-02 (  1,  1,  7)   0.000     (  1,  1,  1)



 >>>>>>>>>>>>>>>>>>>>>>>>>>>>>>>>>>>>>>>>>>>>>>>>>>>>>>>FOR COMPONENT NO. 01<<<<<<<<<<<<<<<<<<<<<<<<<<<<<<<<<<<<<<<<<<<<<<<<<<<<<<<


                                            -------------------------------------------
                                                      TRANSPORT STEP NO.   20
                                            -------------------------------------------

 TOTAL ELAPSED TIME SINCE BEGINNING OF SIMULATION =   2000.000    D   
 .....................................................................

 TOTAL PARTICLES USED IN THE CURRENT STEP =         0
 PARTICLES ADDED AT BEGINNING OF THE STEP =         0
 PARTICLES REMOVED AT END OF LAST STEP    =         0

                     CUMMULATIVE MASS BUDGETS AT END OF TRANSPORT STEP   20, TIME STEP    1, STRESS PERIOD    1
                     ------------------------------------------------------------------------------------------

                                                             IN                           OUT
                                                      ----------------             ----------------
                               CONSTANT CONCENTRATION:    129.1518                    0.000000    
                                        CONSTANT HEAD:    0.000000                  -0.3284996E-33
                               1ST/0TH ORDER REACTION:    0.000000                    0.000000    
                                MASS STORAGE (SOLUTE):    0.000000                   -25.83038    
                                MASS STORAGE (SORBED):    0.000000                   -103.3215    
                            ---------------------------------------------------------------------------
                                              [TOTAL]:    129.1518     KG            -129.1519     KG  

                                                          NET (IN - OUT):  -0.7629395E-04
                                                   DISCREPANCY (PERCENT):  -0.5907304E-04
  ----- 
 | M T |
 | 3 D | END OF MODEL OUTPUT
  ----- 
