                                  MODFLOW-2005     
      U.S. GEOLOGICAL SURVEY MODULAR FINITE-DIFFERENCE GROUND-WATER FLOW MODEL
                            VERSION 1.12.00 2/3/2017

 LIST FILE: freundlich_mf.list
                         UNIT    2

 OPENING freundlich_mf.dis
 FILE TYPE:DIS   UNIT   11   STATUS:OLD    
 FORMAT:FORMATTED              ACCESS:SEQUENTIAL          

 OPENING freundlich_mf.bas
 FILE TYPE:BAS6   UNIT   13   STATUS:OLD    
 FORMAT:FORMATTED              ACCESS:SEQUENTIAL          

 OPENING freundlich_mf.lpf
 FILE TYPE:LPF   UNIT   15   STATUS:OLD    
 FORMAT:FORMATTED              ACCESS:SEQUENTIAL          

 OPENING freundlich_mf.pcg
 FILE TYPE:PCG   UNIT   27   STATUS:OLD    
 FORMAT:FORMATTED              ACCESS:SEQUENTIAL          

 OPENING freundlich_mf.lmt6
 FILE TYPE:LMT6   UNIT   30   STATUS:OLD    
 FORMAT:FORMATTED              ACCESS:SEQUENTIAL          

 BAS -- BASIC PACKAGE, VERSION 7, 5/2/2005 INPUT READ FROM UNIT   13

 MODFLOW was compiled using mixed precision
 Precision of REAL variables:           6
 Precision of DOUBLE PRECISION variables:          15

 DISCRETIZATION INPUT DATA READ FROM UNIT   11
 # DIS package for  MODFLOW-2005, generated by Flopy.
    1 LAYERS         1 ROWS       101 COLUMNS
    1 STRESS PERIOD(S) IN SIMULATION
 MODEL TIME UNIT IS DAYS
 MODEL LENGTH UNIT IS METERS
  Confining bed flag for each layer:
   0

                     DELR =  0.160000    

                     DELC =   1.00000    

 TOP ELEVATION OF LAYER 1 =   0.00000    

   MODEL LAYER BOTTOM EL. =  -1.00000     FOR LAYER   1


 STRESS PERIOD     LENGTH       TIME STEPS     MULTIPLIER FOR DELT    SS FLAG
 ----------------------------------------------------------------------------
        1         1.000000          1                    1.000         SS

 STEADY-STATE SIMULATION




 # BAS6 package for  MODFLOW-2005, generated by Flopy.                           
 THE FREE FORMAT OPTION HAS BEEN SELECTED



                     BOUNDARY ARRAY FOR LAYER   1
 READING ON UNIT   13 WITH FORMAT: (101I10)            

 AQUIFER HEAD WILL BE SET TO  -999.99     AT ALL NO-FLOW NODES (IBOUND=0).



                       INITIAL HEAD FOR LAYER   1
 READING ON UNIT   13 WITH FORMAT: (101E15.6)          

 DEFAULT OUTPUT CONTROL
 THE FOLLOWING OUTPUT COMES AT THE END OF EACH STRESS PERIOD:
 TOTAL VOLUMETRIC BUDGET
           HEAD

 LPF -- LAYER-PROPERTY FLOW PACKAGE, VERSION 7, 5/2/2005
         INPUT READ FROM UNIT   15
 # LPF package for  MODFLOW-2005, generated by Flopy.
 HEAD AT CELLS THAT CONVERT TO DRY= -1.00000E+30
 No named parameters

   LAYER FLAGS:
 LAYER       LAYTYP        LAYAVG         CHANI        LAYVKA        LAYWET
 ---------------------------------------------------------------------------
    1             0             0     1.000E+00             0             0

   INTERPRETATION OF LAYER FLAGS:
                        INTERBLOCK     HORIZONTAL    DATA IN
         LAYER TYPE   TRANSMISSIVITY   ANISOTROPY   ARRAY VKA   WETTABILITY
 LAYER      (LAYTYP)      (LAYAVG)       (CHANI)      (LAYVKA)      (LAYWET)
 ---------------------------------------------------------------------------
    1      CONFINED      HARMONIC     1.000E+00    VERTICAL K  NON-WETTABLE

 WETTING CAPABILITY IS NOT ACTIVE IN ANY LAYER

    HYD. COND. ALONG ROWS =   1.00000     FOR LAYER   1

      VERTICAL HYD. COND. =   1.00000     FOR LAYER   1

 PCG -- CONJUGATE-GRADIENT SOLUTION PACKAGE, VERSION 7, 5/2/2005
 # PCG package for  MODFLOW-2005, generated by Flopy.
 MAXIMUM OF     50 CALLS OF SOLUTION ROUTINE
 MAXIMUM OF     30 INTERNAL ITERATIONS PER CALL TO SOLUTION ROUTINE
 MATRIX PRECONDITIONING TYPE :    1



                                    SOLUTION BY THE CONJUGATE-GRADIENT METHOD
                                   -------------------------------------------
                    MAXIMUM NUMBER OF CALLS TO PCG ROUTINE =       50
                        MAXIMUM ITERATIONS PER CALL TO PCG =       30
                               MATRIX PRECONDITIONING TYPE =        1
        RELAXATION FACTOR (ONLY USED WITH PRECOND. TYPE 1) =    0.10000E+01
 PARAMETER OF POLYNOMIAL PRECOND. = 2 (2) OR IS CALCULATED :        0
                         HEAD CHANGE CRITERION FOR CLOSURE =    0.10000E-04
                     RESIDUAL CHANGE CRITERION FOR CLOSURE =    0.10000E-04
            PCG HEAD AND RESIDUAL CHANGE PRINTOUT INTERVAL =      999
     PRINTING FROM SOLVER IS LIMITED(1) OR SUPPRESSED (>1) =        3
                            STEADY-STATE DAMPING PARAMETER =    0.10000E+01
                               TRANSIENT DAMPING PARAMETER =    0.10000E+01


 ***Link-MT3DMS Package v7***
 OPENING LINK-MT3DMS OUTPUT FILE: mt3d_link.ftl                                                                                                                                                                                           
 ON UNIT NUMBER:    54
 FILE TYPE: UNFORMATTED
 HEADER OPTION: EXTENDED
 ***Link-MT3DMS Package v7***

1
                            STRESS PERIOD NO.    1, LENGTH =   1.000000    
                            -----------------------------------------------

                              NUMBER OF TIME STEPS =     1

                               MULTIPLIER FOR DELT =     1.000

                            INITIAL TIME STEP SIZE =   1.000000    

 SOLVING FOR HEAD 

 SAVING SATURATED THICKNESS AND FLOW TERMS ON UNIT   54 FOR MT3DMS
 BY THE LINK-MT3DMS PACKAGE V7 AT TIME STEP    1, STRESS PERIOD    1

1
              HEAD IN LAYER   1 AT END OF TIME STEP   1 IN STRESS PERIOD    1
  ---------------------------------------------------------------------------

            1           2           3           4           5           6           7           8           9          10
           11          12          13          14          15          16          17          18          19          20
           21          22          23          24          25          26          27          28          29          30
           31          32          33          34          35          36          37          38          39          40
           41          42          43          44          45          46          47          48          49          50
           51          52          53          54          55          56          57          58          59          60
           61          62          63          64          65          66          67          68          69          70
           71          72          73          74          75          76          77          78          79          80
           81          82          83          84          85          86          87          88          89          90
           91          92          93          94          95          96          97          98          99         100
          101
 ........................................................................................................................
   1   0.5920      0.5861      0.5802      0.5742      0.5683      0.5624      0.5565      0.5506      0.5446      0.5387    
       0.5328      0.5269      0.5210      0.5150      0.5091      0.5032      0.4973      0.4914      0.4854      0.4795    
       0.4736      0.4677      0.4618      0.4558      0.4499      0.4440      0.4381      0.4322      0.4262      0.4203    
       0.4144      0.4085      0.4026      0.3966      0.3907      0.3848      0.3789      0.3730      0.3670      0.3611    
       0.3552      0.3493      0.3434      0.3374      0.3315      0.3256      0.3197      0.3138      0.3078      0.3019    
       0.2960      0.2901      0.2842      0.2782      0.2723      0.2664      0.2605      0.2546      0.2486      0.2427    
       0.2368      0.2309      0.2250      0.2190      0.2131      0.2072      0.2013      0.1954      0.1894      0.1835    
       0.1776      0.1717      0.1658      0.1598      0.1539      0.1480      0.1421      0.1362      0.1302      0.1243    
       0.1184      0.1125      0.1066      0.1006      9.4720E-02  8.8800E-02  8.2880E-02  7.6960E-02  7.1040E-02  6.5120E-02
       5.9200E-02  5.3280E-02  4.7360E-02  4.1440E-02  3.5520E-02  2.9600E-02  2.3680E-02  1.7760E-02  1.1840E-02  5.9200E-03
        0.000    
1
  VOLUMETRIC BUDGET FOR ENTIRE MODEL AT END OF TIME STEP    1, STRESS PERIOD   1
  ------------------------------------------------------------------------------

     CUMULATIVE VOLUMES      L**3       RATES FOR THIS TIME STEP      L**3/T
     ------------------                 ------------------------

           IN:                                      IN:
           ---                                      ---
             STORAGE =           0.0000               STORAGE =           0.0000
       CONSTANT HEAD =       3.7000E-02         CONSTANT HEAD =       3.7000E-02

            TOTAL IN =       3.7000E-02              TOTAL IN =       3.7000E-02

          OUT:                                     OUT:
          ----                                     ----
             STORAGE =           0.0000               STORAGE =           0.0000
       CONSTANT HEAD =       3.7000E-02         CONSTANT HEAD =       3.7000E-02

           TOTAL OUT =       3.7000E-02             TOTAL OUT =       3.7000E-02

            IN - OUT =           0.0000              IN - OUT =           0.0000

 PERCENT DISCREPANCY =           0.00     PERCENT DISCREPANCY =           0.00






         TIME SUMMARY AT END OF TIME STEP    1 IN STRESS PERIOD    1
                    SECONDS     MINUTES      HOURS       DAYS        YEARS
                    -----------------------------------------------------------
   TIME STEP LENGTH  86400.      1440.0      24.000      1.0000     2.73785E-03
 STRESS PERIOD TIME  86400.      1440.0      24.000      1.0000     2.73785E-03
         TOTAL TIME  86400.      1440.0      24.000      1.0000     2.73785E-03
1

 Run end date and time (yyyy/mm/dd hh:mm:ss): 2020/05/22 12:48:23
 Elapsed run time:  0.002 Seconds

