 LISTING FILE: freundlich_mt.list
                         UNIT  16

 OPENING mt3d_link.ftl
 FILE TYPE:FTL   UNIT  10

 OPENING freundlich_mt.btn
 FILE TYPE:BTN   UNIT  31

 OPENING freundlich_mt.adv
 FILE TYPE:ADV   UNIT  32

 OPENING freundlich_mt.dsp
 FILE TYPE:DSP   UNIT  33

 OPENING freundlich_mt.rct
 FILE TYPE:RCT   UNIT  36

 OPENING freundlich_mt.ssm
 FILE TYPE:SSM   UNIT  34

 OPENING freundlich_mt.gcg
 FILE TYPE:GCG   UNIT  35

                              +++++++++++++++++++++++++++++++++++++++++++++++++++++++++++++++++++++++
                              +                                                                     +
                              +                               MT3DMS                                +
                              +             A Modular 3D Multi-Species Transport Model              +
                              +    For Simulation of Advection, Dispersion and Chemical Reactions   +
                              +                of Contaminants in Groundwater Systems               +
                              +                                                                     +
                              +++++++++++++++++++++++++++++++++++++++++++++++++++++++++++++++++++++++

  ----- 
 | M T | ## BTN for MT3DMS, generated by Flopy.                                          
 | 3 D | ##                                                                              
  ----- 
 THE TRANSPORT MODEL CONSISTS OF     1 LAYER(S)    1 ROW(S)  101 COLUMN(S)
 NUMBER OF STRESS PERIOD(S) FOR TRANSPORT SIMULATION =    2
 NUMBER OF ALL COMPONENTS INCLUDED IN SIMULATION =    1
 NUMBER OF MOBILE COMPONENTS INCLUDED IN SIMULATION =    1
 UNIT FOR TIME IS D   ;  UNIT FOR LENGTH IS M   ;  UNIT FOR MASS IS KG  
 OPTIONAL PACKAGES INCLUDED IN CURRENT SIMULATION:
  o ADV   ON UNIT 32
  o DSP   ON UNIT 33
  o SSM   ON UNIT 34
  o RCT   ON UNIT 36
  o GCG   ON UNIT 35

 BTN5 -- BASIC TRANSPORT PACKAGE, VERSION 5, FEBRUARY 2010, INPUT READ FROM UNIT 31
       1820 ELEMENTS OF THE  X ARRAY USED BY THE BTN PACKAGE
        102 ELEMENTS OF THE IX ARRAY USED BY THE BTN PACKAGE

 FMI5 -- FLOW MODEL INTERFACE PACKAGE, VERSION 5, FEBRUARY 2010, INPUT READ FROM UNIT 10
 FLOW MODEL IS STEADY-STATE
 FLOW MODEL CONTAINS CONSTANT-HEAD CELLS

 ADV5 -- ADVECTION PACKAGE, VERSION 5, FEBRUARY 2010, INPUT READ FROM UNIT 32
 ADVECTION IS SOLVED WITH THE ULTIMATE SCHEME
 COURANT NUMBER ALLOWED IN SOLVING THE ADVECTION TERM = 0.500    
          0 ELEMENTS OF THE  X ARRAY USED BY THE ADV PACKAGE
          0 ELEMENTS OF THE IX ARRAY USED BY THE ADV PACKAGE

 DSP5 -- DISPERSION PACKAGE, VERSION 5, FEBRUARY 2010, INPUT READ FROM UNIT 33
       1113 ELEMENTS OF THE  X ARRAY USED BY THE DSP PACKAGE
          0 ELEMENTS OF THE IX ARRAY USED BY THE DSP PACKAGE

 SSM5 -- SINK & SOURCE MIXING PACKAGE, VERSION 5, FEBRUARY 2010, INPUT READ FROM UNIT 34
 HEADER LINE OF THE SSM PACKAGE INPUT FILE:
  F F F F F F F F F F F F F F F F                                                                                                                                                                        
 MAJOR STRESS COMPONENTS PRESENT IN THE FLOW MODEL:
 MAXIMUM NUMBER OF POINT SINKS/SOURCES =       2
         26 ELEMENTS OF THE  X ARRAY USED BY THE SSM PACKAGE
          0 ELEMENTS OF THE IX ARRAY BY THE SSM PACKAGE

 RCT5 -- CHEMICAL REACTION PACKAGE, VERSION 5, FEBRUARY 2010, INPUT READ FROM UNIT 36
 TYPE OF SORPTION SELECTED IS [FREUNDLICH]
 NO FIRST-ORDER RATE REACTION IS SIMULATED
 REACTION COEFFICIENTS ASSIGNED CELL-BY-CELL
 INITIAL SORBED/IMMOBILE PHASE CONCENTRATION ASSIGNED BY DEFAULT
        303 ELEMENTS OF THE  X ARRAY USED BY THE RCT PACKAGE
          0 ELEMENTS OF THE IX ARRAY USED BY THE RCT PACKAGE

 GCG5 -- GENERALIZED CONJUGATE GRADIENT SOLVER PACKAGE, VERSION 5, FEBRUARY 2010 INPUT READ FROM UNIT 35
 MAXIMUM OF    1 OUTER ITERATIONS
        AND   50 INNER ITERATIONS ALLOWED FOR CLOSURE
 THE PRECONDITIONING TYPE SELECTED IS MODIFIED INCOMPLETE CHOLESKY (MIC).
 DISPERSION CROSS TERMS LUMPED INTO RIGHT-HAND-SIDE
       2272 ELEMENTS OF THE  X ARRAY USED BY THE GCG PACKAGE
        150 ELEMENTS OF THE IX ARRAY USED BY THE GCG PACKAGE

 ..........................................
 ELEMENTS OF THE  X ARRAY USED =      5535
 ELEMENTS OF THE IX ARRAY USED =       253
 ..........................................

 LAYER NUMBER  AQUIFER TYPE
 ------------  ------------
       1            0
                                       WIDTH ALONG ROWS (DELR)  =  0.1600000    
                                       WIDTH ALONG COLS (DELC)  =   1.000000    
                                       TOP ELEV. OF 1ST LAYER   =   0.000000    
                                       CELL THICKNESS (DZ)      =   1.000000     FOR LAYER  1
                                       POROSITY                 =  0.3700000     FOR LAYER  1
                                       CONCN. BOUNDARY ARRAY    =              1 FOR LAYER  1
                                       INITIAL CONC.: COMP.  01 =   0.000000     FOR LAYER  1

 VALUE INDICATING INACTIVE CONCENTRATION CELLS =   0.1000000E+31
 MINIMUM SATURATED THICKNESS [THKMIN] ALLOWED =  0.0100 OF TOTAL CELL THICKNESS


 OUTPUT CONTROL OPTIONS
 ----------------------

 DO NOT PRINT CELL CONCENTRATION
 DO NOT PRINT PARTICLE NUMBER IN EACH CELL
 DO NOT PRINT RETARDATION FACTOR
 DO NOT PRINT DISPERSION COEFFICIENT
 SAVE DISSOLVED PHASE CONCENTRATIONS IN UNFORMATTED FILES [MT3Dnnn.UCN]
  FOR EACH SPECIES ON UNITS 201 AND ABOVE
 SAVE SORBED/IMMOBILE PHASE CONCENTRATIONS IN UNFORMATTED FILES [MT3DnnnS.UCN]
  FOR EACH SPECIES ON UNITS 301 AND ABOVE, IF SORPTION/MASS TRANSFER SIMULATED

 NUMBER OF TIMES AT WHICH SIMULATION RESULTS ARE SAVED =    0

 NUMBER OF OBSERVATION POINTS =    1
 SAVE CONCENTRATIONS AT OBSERVATION POINTS IN FILES [MT3Dnnn.OBS]
  FOR EACH SPECIES ON UNITS 401 AND ABOVE, EVERY  1 TRANSPORT STEPS
 LOCATION OF OBSERVATION POINTS
 ..............................
 NUMBER  LAYER   ROW   COLUMN
   1        1      1     51

 SAVE ONE-LINE SUMMARY OF MASS BUDGETS IN FILES [MT3Dnnn.MAS]
  FOR EACH SPECIES ON UNITS 601 AND ABOVE, EVERY  1 TRANSPORT STEPS

 MAXIMUM LENGTH ALONG THE X (J) AXIS =   16.15999    
 MAXIMUM LENGTH ALONG THE Y (I) AXIS =   1.000000    
 MAXIMUM LENGTH ALONG THE Z (K) AXIS =   1.000000    


 ADVECTION SOLUTION OPTIONS
 --------------------------

 ADVECTION IS SOLVED WITH THE ULTIMATE SCHEME
 COURANT NUMBER ALLOWED IN SOLVING THE ADVECTION TERM = 0.500    


 DISPERSION INPUT PARAMETERS
 ---------------------------

                                       LONG. DISPERSIVITY (AL)  =   1.000000     FOR LAYER  1
                                       H. TRANS./LONG. DISP.    =  0.1000000    
                                       V. TRANS./LONG. DISP.    =  0.1000000E-01
                                       DIFFUSION COEFFICIENT    =  0.1000000E-08


 SORPTION AND 1ST/0TH ORDER REACTION PARAMETERS
 ----------------------------------------------

                                       BULK DENSITY (RHOB)      =   1.587000     FOR LAYER  1
                                       1ST SORP. COEF. COMP. 01 =  0.3000000     FOR LAYER  1
                                       2ND SORP. COEF. COMP. 01 =  0.7000000     FOR LAYER  1



                                               SOLUTION BY THE GENERALIZED CONJUGATE GRADIENT METHOD
                                               -----------------------------------------------------
                                     MAXIMUM OUTER ITERATIONS ALLOWED FOR CLOSURE =        1
                                     MAXIMUM INNER ITERATIONS ALLOWED FOR CLOSURE =       50
                                                    PRECONDITIONING TYPE SELECTED =    3
                                                           ACCELERATION PARAMETER =     1.0000    
                                       CONCENTRATION CHANGE CRITERION FOR CLOSURE =    0.10000E-04
                                       GCG CONCENTRATION CHANGE PRINTOUT INTERVAL =      999


                                   ++++++++++++++++++++++++++++++++++++++++++++++++++++++++++++++
                                                       STRESS PERIOD NO.  001
                                   ++++++++++++++++++++++++++++++++++++++++++++++++++++++++++++++


 LENGTH OF CURRENT STRESS PERIOD =   160.0000    
 NUMBER OF TIME STEPS FOR CURRENT STRESS PERIOD =    1
 TIME STEP MULTIPLIER USED IN FLOW SOLUTION =   1.000000    

 ***Type of Transport Simulation is TRANSIENT

 USER-SPECIFIED TRANSPORT STEPSIZE =   0.000000    D   
 MAXIMUM NUMBER OF TRANSPORT STEPS ALLOWED  IN ONE FLOW TIME STEP =     50000
 MULTIPLIER FOR SUCCESSIVE TRANSPORT STEPS  [USED IN IMPLICIT SCHEMES] =     1.000
 MAXIMUM TRANSPORT STEP SIZE  [USED IN IMPLICIT SCHEMES] =   0.000000    D   

       NO    LAYER   ROW   COLUMN   CONCENTRATION       TYPE            COMPONENT
       1       1       1       1      0.5000000E-01     CONSTANT HEAD       1


                                          ================================================
                                                         TIME STEP NO.  001
                                          ================================================

 FROM TIME =   0.0000     TO    160.00    


                    "THKSAT          " FLOW TERMS FOR TIME STEP  1, STRESS PERIOD  1 READ UNFORMATTED ON UNIT 10
                    --------------------------------------------------------------------------------------------

                    "QXX             " FLOW TERMS FOR TIME STEP  1, STRESS PERIOD  1 READ UNFORMATTED ON UNIT 10
                    --------------------------------------------------------------------------------------------

 MAXIMUM STEPSIZE DURING WHICH ANY PARTICLE CANNOT MOVE MORE THAN ONE CELL
 =  1.600    (WHEN MIN. R.F.=1)  AT K=   1, I=   1, J=   2

 MAXIMUM STEPSIZE WHICH MEETS STABILITY CRITERION OF THE ADVECTION TERM
 (FOR PURE FINITE-DIFFERENCE OPTION, MIXELM=0) 
 =  1.600    (WHEN MIN. R.F.=1)  AT K=   1, I=   1, J=   2

                    "CNH             " FLOW TERMS FOR TIME STEP  1, STRESS PERIOD  1 READ UNFORMATTED ON UNIT 10
                    --------------------------------------------------------------------------------------------


 TOTAL NUMBER OF POINT SOURCES/SINKS PRESENT IN THE FLOW MODEL =     2

 MAXIMUM STEPSIZE WHICH MEETS STABILITY CRITERION OF THE SINK & SOURCE TERM
 =  1.600    (WHEN MIN. R.F.=1)  AT K=   1, I=   1, J=   1

 MAXIMUM STEPSIZE WHICH MEETS STABILITY CRITERION OF THE DISPERSION TERM
 = 0.1280    (WHEN MIN. R.F.=1)  AT K=   1, I=   1, J=   1


     1 CALLS TO GCG PACKAGE FOR TRANSPORT TIME STEP   1 IN FLOW TIME STEP   1 STRESS PERIOD   1
     2 TOTAL ITERATIONS
     1 CALLS TO GCG PACKAGE FOR TRANSPORT TIME STEP   2 IN FLOW TIME STEP   1 STRESS PERIOD   1
     2 TOTAL ITERATIONS
     1 CALLS TO GCG PACKAGE FOR TRANSPORT TIME STEP   3 IN FLOW TIME STEP   1 STRESS PERIOD   1
     2 TOTAL ITERATIONS
     1 CALLS TO GCG PACKAGE FOR TRANSPORT TIME STEP   4 IN FLOW TIME STEP   1 STRESS PERIOD   1
     2 TOTAL ITERATIONS
     1 CALLS TO GCG PACKAGE FOR TRANSPORT TIME STEP   5 IN FLOW TIME STEP   1 STRESS PERIOD   1
     2 TOTAL ITERATIONS
     1 CALLS TO GCG PACKAGE FOR TRANSPORT TIME STEP   6 IN FLOW TIME STEP   1 STRESS PERIOD   1
     2 TOTAL ITERATIONS
     1 CALLS TO GCG PACKAGE FOR TRANSPORT TIME STEP   7 IN FLOW TIME STEP   1 STRESS PERIOD   1
     2 TOTAL ITERATIONS
     1 CALLS TO GCG PACKAGE FOR TRANSPORT TIME STEP   8 IN FLOW TIME STEP   1 STRESS PERIOD   1
     2 TOTAL ITERATIONS
     1 CALLS TO GCG PACKAGE FOR TRANSPORT TIME STEP   9 IN FLOW TIME STEP   1 STRESS PERIOD   1
     2 TOTAL ITERATIONS
     1 CALLS TO GCG PACKAGE FOR TRANSPORT TIME STEP  10 IN FLOW TIME STEP   1 STRESS PERIOD   1
     2 TOTAL ITERATIONS
     1 CALLS TO GCG PACKAGE FOR TRANSPORT TIME STEP  11 IN FLOW TIME STEP   1 STRESS PERIOD   1
     2 TOTAL ITERATIONS
     1 CALLS TO GCG PACKAGE FOR TRANSPORT TIME STEP  12 IN FLOW TIME STEP   1 STRESS PERIOD   1
     2 TOTAL ITERATIONS
     1 CALLS TO GCG PACKAGE FOR TRANSPORT TIME STEP  13 IN FLOW TIME STEP   1 STRESS PERIOD   1
     2 TOTAL ITERATIONS
     1 CALLS TO GCG PACKAGE FOR TRANSPORT TIME STEP  14 IN FLOW TIME STEP   1 STRESS PERIOD   1
     2 TOTAL ITERATIONS
     1 CALLS TO GCG PACKAGE FOR TRANSPORT TIME STEP  15 IN FLOW TIME STEP   1 STRESS PERIOD   1
     2 TOTAL ITERATIONS
     1 CALLS TO GCG PACKAGE FOR TRANSPORT TIME STEP  16 IN FLOW TIME STEP   1 STRESS PERIOD   1
     2 TOTAL ITERATIONS
     1 CALLS TO GCG PACKAGE FOR TRANSPORT TIME STEP  17 IN FLOW TIME STEP   1 STRESS PERIOD   1
     2 TOTAL ITERATIONS
     1 CALLS TO GCG PACKAGE FOR TRANSPORT TIME STEP  18 IN FLOW TIME STEP   1 STRESS PERIOD   1
     2 TOTAL ITERATIONS
     1 CALLS TO GCG PACKAGE FOR TRANSPORT TIME STEP  19 IN FLOW TIME STEP   1 STRESS PERIOD   1
     2 TOTAL ITERATIONS
     1 CALLS TO GCG PACKAGE FOR TRANSPORT TIME STEP  20 IN FLOW TIME STEP   1 STRESS PERIOD   1
     2 TOTAL ITERATIONS
     1 CALLS TO GCG PACKAGE FOR TRANSPORT TIME STEP  21 IN FLOW TIME STEP   1 STRESS PERIOD   1
     2 TOTAL ITERATIONS
     1 CALLS TO GCG PACKAGE FOR TRANSPORT TIME STEP  22 IN FLOW TIME STEP   1 STRESS PERIOD   1
     2 TOTAL ITERATIONS
     1 CALLS TO GCG PACKAGE FOR TRANSPORT TIME STEP  23 IN FLOW TIME STEP   1 STRESS PERIOD   1
     2 TOTAL ITERATIONS
     1 CALLS TO GCG PACKAGE FOR TRANSPORT TIME STEP  24 IN FLOW TIME STEP   1 STRESS PERIOD   1
     2 TOTAL ITERATIONS
     1 CALLS TO GCG PACKAGE FOR TRANSPORT TIME STEP  25 IN FLOW TIME STEP   1 STRESS PERIOD   1
     2 TOTAL ITERATIONS
     1 CALLS TO GCG PACKAGE FOR TRANSPORT TIME STEP  26 IN FLOW TIME STEP   1 STRESS PERIOD   1
     2 TOTAL ITERATIONS
     1 CALLS TO GCG PACKAGE FOR TRANSPORT TIME STEP  27 IN FLOW TIME STEP   1 STRESS PERIOD   1
     2 TOTAL ITERATIONS
     1 CALLS TO GCG PACKAGE FOR TRANSPORT TIME STEP  28 IN FLOW TIME STEP   1 STRESS PERIOD   1
     2 TOTAL ITERATIONS
     1 CALLS TO GCG PACKAGE FOR TRANSPORT TIME STEP  29 IN FLOW TIME STEP   1 STRESS PERIOD   1
     2 TOTAL ITERATIONS
     1 CALLS TO GCG PACKAGE FOR TRANSPORT TIME STEP  30 IN FLOW TIME STEP   1 STRESS PERIOD   1
     2 TOTAL ITERATIONS
     1 CALLS TO GCG PACKAGE FOR TRANSPORT TIME STEP  31 IN FLOW TIME STEP   1 STRESS PERIOD   1
     2 TOTAL ITERATIONS
     1 CALLS TO GCG PACKAGE FOR TRANSPORT TIME STEP  32 IN FLOW TIME STEP   1 STRESS PERIOD   1
     2 TOTAL ITERATIONS
     1 CALLS TO GCG PACKAGE FOR TRANSPORT TIME STEP  33 IN FLOW TIME STEP   1 STRESS PERIOD   1
     2 TOTAL ITERATIONS
     1 CALLS TO GCG PACKAGE FOR TRANSPORT TIME STEP  34 IN FLOW TIME STEP   1 STRESS PERIOD   1
     2 TOTAL ITERATIONS
     1 CALLS TO GCG PACKAGE FOR TRANSPORT TIME STEP  35 IN FLOW TIME STEP   1 STRESS PERIOD   1
     2 TOTAL ITERATIONS
     1 CALLS TO GCG PACKAGE FOR TRANSPORT TIME STEP  36 IN FLOW TIME STEP   1 STRESS PERIOD   1
     2 TOTAL ITERATIONS
     1 CALLS TO GCG PACKAGE FOR TRANSPORT TIME STEP  37 IN FLOW TIME STEP   1 STRESS PERIOD   1
     2 TOTAL ITERATIONS
     1 CALLS TO GCG PACKAGE FOR TRANSPORT TIME STEP  38 IN FLOW TIME STEP   1 STRESS PERIOD   1
     2 TOTAL ITERATIONS
     1 CALLS TO GCG PACKAGE FOR TRANSPORT TIME STEP  39 IN FLOW TIME STEP   1 STRESS PERIOD   1
     2 TOTAL ITERATIONS
     1 CALLS TO GCG PACKAGE FOR TRANSPORT TIME STEP  40 IN FLOW TIME STEP   1 STRESS PERIOD   1
     2 TOTAL ITERATIONS
     1 CALLS TO GCG PACKAGE FOR TRANSPORT TIME STEP  41 IN FLOW TIME STEP   1 STRESS PERIOD   1
     2 TOTAL ITERATIONS
     1 CALLS TO GCG PACKAGE FOR TRANSPORT TIME STEP  42 IN FLOW TIME STEP   1 STRESS PERIOD   1
     2 TOTAL ITERATIONS
     1 CALLS TO GCG PACKAGE FOR TRANSPORT TIME STEP  43 IN FLOW TIME STEP   1 STRESS PERIOD   1
     2 TOTAL ITERATIONS
     1 CALLS TO GCG PACKAGE FOR TRANSPORT TIME STEP  44 IN FLOW TIME STEP   1 STRESS PERIOD   1
     2 TOTAL ITERATIONS
     1 CALLS TO GCG PACKAGE FOR TRANSPORT TIME STEP  45 IN FLOW TIME STEP   1 STRESS PERIOD   1
     2 TOTAL ITERATIONS
     1 CALLS TO GCG PACKAGE FOR TRANSPORT TIME STEP  46 IN FLOW TIME STEP   1 STRESS PERIOD   1
     2 TOTAL ITERATIONS
     1 CALLS TO GCG PACKAGE FOR TRANSPORT TIME STEP  47 IN FLOW TIME STEP   1 STRESS PERIOD   1
     2 TOTAL ITERATIONS
     1 CALLS TO GCG PACKAGE FOR TRANSPORT TIME STEP  48 IN FLOW TIME STEP   1 STRESS PERIOD   1
     2 TOTAL ITERATIONS
     1 CALLS TO GCG PACKAGE FOR TRANSPORT TIME STEP  49 IN FLOW TIME STEP   1 STRESS PERIOD   1
     2 TOTAL ITERATIONS
     1 CALLS TO GCG PACKAGE FOR TRANSPORT TIME STEP  50 IN FLOW TIME STEP   1 STRESS PERIOD   1
     2 TOTAL ITERATIONS
     1 CALLS TO GCG PACKAGE FOR TRANSPORT TIME STEP  51 IN FLOW TIME STEP   1 STRESS PERIOD   1
     2 TOTAL ITERATIONS
     1 CALLS TO GCG PACKAGE FOR TRANSPORT TIME STEP  52 IN FLOW TIME STEP   1 STRESS PERIOD   1
     2 TOTAL ITERATIONS
     1 CALLS TO GCG PACKAGE FOR TRANSPORT TIME STEP  53 IN FLOW TIME STEP   1 STRESS PERIOD   1
     2 TOTAL ITERATIONS
     1 CALLS TO GCG PACKAGE FOR TRANSPORT TIME STEP  54 IN FLOW TIME STEP   1 STRESS PERIOD   1
     2 TOTAL ITERATIONS
     1 CALLS TO GCG PACKAGE FOR TRANSPORT TIME STEP  55 IN FLOW TIME STEP   1 STRESS PERIOD   1
     2 TOTAL ITERATIONS
     1 CALLS TO GCG PACKAGE FOR TRANSPORT TIME STEP  56 IN FLOW TIME STEP   1 STRESS PERIOD   1
     2 TOTAL ITERATIONS
     1 CALLS TO GCG PACKAGE FOR TRANSPORT TIME STEP  57 IN FLOW TIME STEP   1 STRESS PERIOD   1
     2 TOTAL ITERATIONS
     1 CALLS TO GCG PACKAGE FOR TRANSPORT TIME STEP  58 IN FLOW TIME STEP   1 STRESS PERIOD   1
     2 TOTAL ITERATIONS
     1 CALLS TO GCG PACKAGE FOR TRANSPORT TIME STEP  59 IN FLOW TIME STEP   1 STRESS PERIOD   1
     2 TOTAL ITERATIONS
     1 CALLS TO GCG PACKAGE FOR TRANSPORT TIME STEP  60 IN FLOW TIME STEP   1 STRESS PERIOD   1
     2 TOTAL ITERATIONS
     1 CALLS TO GCG PACKAGE FOR TRANSPORT TIME STEP  61 IN FLOW TIME STEP   1 STRESS PERIOD   1
     2 TOTAL ITERATIONS
     1 CALLS TO GCG PACKAGE FOR TRANSPORT TIME STEP  62 IN FLOW TIME STEP   1 STRESS PERIOD   1
     2 TOTAL ITERATIONS
     1 CALLS TO GCG PACKAGE FOR TRANSPORT TIME STEP  63 IN FLOW TIME STEP   1 STRESS PERIOD   1
     2 TOTAL ITERATIONS
     1 CALLS TO GCG PACKAGE FOR TRANSPORT TIME STEP  64 IN FLOW TIME STEP   1 STRESS PERIOD   1
     2 TOTAL ITERATIONS
     1 CALLS TO GCG PACKAGE FOR TRANSPORT TIME STEP  65 IN FLOW TIME STEP   1 STRESS PERIOD   1
     2 TOTAL ITERATIONS
     1 CALLS TO GCG PACKAGE FOR TRANSPORT TIME STEP  66 IN FLOW TIME STEP   1 STRESS PERIOD   1
     2 TOTAL ITERATIONS
     1 CALLS TO GCG PACKAGE FOR TRANSPORT TIME STEP  67 IN FLOW TIME STEP   1 STRESS PERIOD   1
     2 TOTAL ITERATIONS
     1 CALLS TO GCG PACKAGE FOR TRANSPORT TIME STEP  68 IN FLOW TIME STEP   1 STRESS PERIOD   1
     2 TOTAL ITERATIONS
     1 CALLS TO GCG PACKAGE FOR TRANSPORT TIME STEP  69 IN FLOW TIME STEP   1 STRESS PERIOD   1
     2 TOTAL ITERATIONS
     1 CALLS TO GCG PACKAGE FOR TRANSPORT TIME STEP  70 IN FLOW TIME STEP   1 STRESS PERIOD   1
     2 TOTAL ITERATIONS
     1 CALLS TO GCG PACKAGE FOR TRANSPORT TIME STEP  71 IN FLOW TIME STEP   1 STRESS PERIOD   1
     2 TOTAL ITERATIONS
     1 CALLS TO GCG PACKAGE FOR TRANSPORT TIME STEP  72 IN FLOW TIME STEP   1 STRESS PERIOD   1
     2 TOTAL ITERATIONS
     1 CALLS TO GCG PACKAGE FOR TRANSPORT TIME STEP  73 IN FLOW TIME STEP   1 STRESS PERIOD   1
     2 TOTAL ITERATIONS
     1 CALLS TO GCG PACKAGE FOR TRANSPORT TIME STEP  74 IN FLOW TIME STEP   1 STRESS PERIOD   1
     2 TOTAL ITERATIONS
     1 CALLS TO GCG PACKAGE FOR TRANSPORT TIME STEP  75 IN FLOW TIME STEP   1 STRESS PERIOD   1
     2 TOTAL ITERATIONS
     1 CALLS TO GCG PACKAGE FOR TRANSPORT TIME STEP  76 IN FLOW TIME STEP   1 STRESS PERIOD   1
     2 TOTAL ITERATIONS
     1 CALLS TO GCG PACKAGE FOR TRANSPORT TIME STEP  77 IN FLOW TIME STEP   1 STRESS PERIOD   1
     2 TOTAL ITERATIONS
     1 CALLS TO GCG PACKAGE FOR TRANSPORT TIME STEP  78 IN FLOW TIME STEP   1 STRESS PERIOD   1
     2 TOTAL ITERATIONS
     1 CALLS TO GCG PACKAGE FOR TRANSPORT TIME STEP  79 IN FLOW TIME STEP   1 STRESS PERIOD   1
     2 TOTAL ITERATIONS
     1 CALLS TO GCG PACKAGE FOR TRANSPORT TIME STEP  80 IN FLOW TIME STEP   1 STRESS PERIOD   1
     2 TOTAL ITERATIONS
     1 CALLS TO GCG PACKAGE FOR TRANSPORT TIME STEP  81 IN FLOW TIME STEP   1 STRESS PERIOD   1
     2 TOTAL ITERATIONS
     1 CALLS TO GCG PACKAGE FOR TRANSPORT TIME STEP  82 IN FLOW TIME STEP   1 STRESS PERIOD   1
     2 TOTAL ITERATIONS
     1 CALLS TO GCG PACKAGE FOR TRANSPORT TIME STEP  83 IN FLOW TIME STEP   1 STRESS PERIOD   1
     2 TOTAL ITERATIONS
     1 CALLS TO GCG PACKAGE FOR TRANSPORT TIME STEP  84 IN FLOW TIME STEP   1 STRESS PERIOD   1
     2 TOTAL ITERATIONS
     1 CALLS TO GCG PACKAGE FOR TRANSPORT TIME STEP  85 IN FLOW TIME STEP   1 STRESS PERIOD   1
     2 TOTAL ITERATIONS
     1 CALLS TO GCG PACKAGE FOR TRANSPORT TIME STEP  86 IN FLOW TIME STEP   1 STRESS PERIOD   1
     2 TOTAL ITERATIONS
     1 CALLS TO GCG PACKAGE FOR TRANSPORT TIME STEP  87 IN FLOW TIME STEP   1 STRESS PERIOD   1
     2 TOTAL ITERATIONS
     1 CALLS TO GCG PACKAGE FOR TRANSPORT TIME STEP  88 IN FLOW TIME STEP   1 STRESS PERIOD   1
     2 TOTAL ITERATIONS
     1 CALLS TO GCG PACKAGE FOR TRANSPORT TIME STEP  89 IN FLOW TIME STEP   1 STRESS PERIOD   1
     2 TOTAL ITERATIONS
     1 CALLS TO GCG PACKAGE FOR TRANSPORT TIME STEP  90 IN FLOW TIME STEP   1 STRESS PERIOD   1
     2 TOTAL ITERATIONS
     1 CALLS TO GCG PACKAGE FOR TRANSPORT TIME STEP  91 IN FLOW TIME STEP   1 STRESS PERIOD   1
     2 TOTAL ITERATIONS
     1 CALLS TO GCG PACKAGE FOR TRANSPORT TIME STEP  92 IN FLOW TIME STEP   1 STRESS PERIOD   1
     2 TOTAL ITERATIONS
     1 CALLS TO GCG PACKAGE FOR TRANSPORT TIME STEP  93 IN FLOW TIME STEP   1 STRESS PERIOD   1
     2 TOTAL ITERATIONS
     1 CALLS TO GCG PACKAGE FOR TRANSPORT TIME STEP  94 IN FLOW TIME STEP   1 STRESS PERIOD   1
     2 TOTAL ITERATIONS
     1 CALLS TO GCG PACKAGE FOR TRANSPORT TIME STEP  95 IN FLOW TIME STEP   1 STRESS PERIOD   1
     2 TOTAL ITERATIONS
     1 CALLS TO GCG PACKAGE FOR TRANSPORT TIME STEP  96 IN FLOW TIME STEP   1 STRESS PERIOD   1
     2 TOTAL ITERATIONS
     1 CALLS TO GCG PACKAGE FOR TRANSPORT TIME STEP  97 IN FLOW TIME STEP   1 STRESS PERIOD   1
     2 TOTAL ITERATIONS
     1 CALLS TO GCG PACKAGE FOR TRANSPORT TIME STEP  98 IN FLOW TIME STEP   1 STRESS PERIOD   1
     2 TOTAL ITERATIONS
     1 CALLS TO GCG PACKAGE FOR TRANSPORT TIME STEP  99 IN FLOW TIME STEP   1 STRESS PERIOD   1
     2 TOTAL ITERATIONS
     1 CALLS TO GCG PACKAGE FOR TRANSPORT TIME STEP 100 IN FLOW TIME STEP   1 STRESS PERIOD   1
     2 TOTAL ITERATIONS
     1 CALLS TO GCG PACKAGE FOR TRANSPORT TIME STEP 101 IN FLOW TIME STEP   1 STRESS PERIOD   1
     2 TOTAL ITERATIONS
     1 CALLS TO GCG PACKAGE FOR TRANSPORT TIME STEP 102 IN FLOW TIME STEP   1 STRESS PERIOD   1
     2 TOTAL ITERATIONS
     1 CALLS TO GCG PACKAGE FOR TRANSPORT TIME STEP 103 IN FLOW TIME STEP   1 STRESS PERIOD   1
     2 TOTAL ITERATIONS
     1 CALLS TO GCG PACKAGE FOR TRANSPORT TIME STEP 104 IN FLOW TIME STEP   1 STRESS PERIOD   1
     2 TOTAL ITERATIONS
     1 CALLS TO GCG PACKAGE FOR TRANSPORT TIME STEP 105 IN FLOW TIME STEP   1 STRESS PERIOD   1
     2 TOTAL ITERATIONS
     1 CALLS TO GCG PACKAGE FOR TRANSPORT TIME STEP 106 IN FLOW TIME STEP   1 STRESS PERIOD   1
     2 TOTAL ITERATIONS
     1 CALLS TO GCG PACKAGE FOR TRANSPORT TIME STEP 107 IN FLOW TIME STEP   1 STRESS PERIOD   1
     2 TOTAL ITERATIONS
     1 CALLS TO GCG PACKAGE FOR TRANSPORT TIME STEP 108 IN FLOW TIME STEP   1 STRESS PERIOD   1
     2 TOTAL ITERATIONS
     1 CALLS TO GCG PACKAGE FOR TRANSPORT TIME STEP 109 IN FLOW TIME STEP   1 STRESS PERIOD   1
     2 TOTAL ITERATIONS
     1 CALLS TO GCG PACKAGE FOR TRANSPORT TIME STEP 110 IN FLOW TIME STEP   1 STRESS PERIOD   1
     2 TOTAL ITERATIONS
     1 CALLS TO GCG PACKAGE FOR TRANSPORT TIME STEP 111 IN FLOW TIME STEP   1 STRESS PERIOD   1
     2 TOTAL ITERATIONS
     1 CALLS TO GCG PACKAGE FOR TRANSPORT TIME STEP 112 IN FLOW TIME STEP   1 STRESS PERIOD   1
     2 TOTAL ITERATIONS
     1 CALLS TO GCG PACKAGE FOR TRANSPORT TIME STEP 113 IN FLOW TIME STEP   1 STRESS PERIOD   1
     2 TOTAL ITERATIONS
     1 CALLS TO GCG PACKAGE FOR TRANSPORT TIME STEP 114 IN FLOW TIME STEP   1 STRESS PERIOD   1
     2 TOTAL ITERATIONS
     1 CALLS TO GCG PACKAGE FOR TRANSPORT TIME STEP 115 IN FLOW TIME STEP   1 STRESS PERIOD   1
     2 TOTAL ITERATIONS
     1 CALLS TO GCG PACKAGE FOR TRANSPORT TIME STEP 116 IN FLOW TIME STEP   1 STRESS PERIOD   1
     2 TOTAL ITERATIONS
     1 CALLS TO GCG PACKAGE FOR TRANSPORT TIME STEP 117 IN FLOW TIME STEP   1 STRESS PERIOD   1
     2 TOTAL ITERATIONS
     1 CALLS TO GCG PACKAGE FOR TRANSPORT TIME STEP 118 IN FLOW TIME STEP   1 STRESS PERIOD   1
     2 TOTAL ITERATIONS
     1 CALLS TO GCG PACKAGE FOR TRANSPORT TIME STEP 119 IN FLOW TIME STEP   1 STRESS PERIOD   1
     2 TOTAL ITERATIONS
     1 CALLS TO GCG PACKAGE FOR TRANSPORT TIME STEP 120 IN FLOW TIME STEP   1 STRESS PERIOD   1
     2 TOTAL ITERATIONS
     1 CALLS TO GCG PACKAGE FOR TRANSPORT TIME STEP 121 IN FLOW TIME STEP   1 STRESS PERIOD   1
     2 TOTAL ITERATIONS
     1 CALLS TO GCG PACKAGE FOR TRANSPORT TIME STEP 122 IN FLOW TIME STEP   1 STRESS PERIOD   1
     2 TOTAL ITERATIONS
     1 CALLS TO GCG PACKAGE FOR TRANSPORT TIME STEP 123 IN FLOW TIME STEP   1 STRESS PERIOD   1
     2 TOTAL ITERATIONS
     1 CALLS TO GCG PACKAGE FOR TRANSPORT TIME STEP 124 IN FLOW TIME STEP   1 STRESS PERIOD   1
     2 TOTAL ITERATIONS
     1 CALLS TO GCG PACKAGE FOR TRANSPORT TIME STEP 125 IN FLOW TIME STEP   1 STRESS PERIOD   1
     2 TOTAL ITERATIONS
     1 CALLS TO GCG PACKAGE FOR TRANSPORT TIME STEP 126 IN FLOW TIME STEP   1 STRESS PERIOD   1
     2 TOTAL ITERATIONS
     1 CALLS TO GCG PACKAGE FOR TRANSPORT TIME STEP 127 IN FLOW TIME STEP   1 STRESS PERIOD   1
     2 TOTAL ITERATIONS
     1 CALLS TO GCG PACKAGE FOR TRANSPORT TIME STEP 128 IN FLOW TIME STEP   1 STRESS PERIOD   1
     2 TOTAL ITERATIONS
     1 CALLS TO GCG PACKAGE FOR TRANSPORT TIME STEP 129 IN FLOW TIME STEP   1 STRESS PERIOD   1
     2 TOTAL ITERATIONS
     1 CALLS TO GCG PACKAGE FOR TRANSPORT TIME STEP 130 IN FLOW TIME STEP   1 STRESS PERIOD   1
     2 TOTAL ITERATIONS
     1 CALLS TO GCG PACKAGE FOR TRANSPORT TIME STEP 131 IN FLOW TIME STEP   1 STRESS PERIOD   1
     2 TOTAL ITERATIONS
     1 CALLS TO GCG PACKAGE FOR TRANSPORT TIME STEP 132 IN FLOW TIME STEP   1 STRESS PERIOD   1
     2 TOTAL ITERATIONS
     1 CALLS TO GCG PACKAGE FOR TRANSPORT TIME STEP 133 IN FLOW TIME STEP   1 STRESS PERIOD   1
     2 TOTAL ITERATIONS
     1 CALLS TO GCG PACKAGE FOR TRANSPORT TIME STEP 134 IN FLOW TIME STEP   1 STRESS PERIOD   1
     2 TOTAL ITERATIONS
     1 CALLS TO GCG PACKAGE FOR TRANSPORT TIME STEP 135 IN FLOW TIME STEP   1 STRESS PERIOD   1
     2 TOTAL ITERATIONS
     1 CALLS TO GCG PACKAGE FOR TRANSPORT TIME STEP 136 IN FLOW TIME STEP   1 STRESS PERIOD   1
     2 TOTAL ITERATIONS
     1 CALLS TO GCG PACKAGE FOR TRANSPORT TIME STEP 137 IN FLOW TIME STEP   1 STRESS PERIOD   1
     2 TOTAL ITERATIONS
     1 CALLS TO GCG PACKAGE FOR TRANSPORT TIME STEP 138 IN FLOW TIME STEP   1 STRESS PERIOD   1
     2 TOTAL ITERATIONS
     1 CALLS TO GCG PACKAGE FOR TRANSPORT TIME STEP 139 IN FLOW TIME STEP   1 STRESS PERIOD   1
     2 TOTAL ITERATIONS
     1 CALLS TO GCG PACKAGE FOR TRANSPORT TIME STEP 140 IN FLOW TIME STEP   1 STRESS PERIOD   1
     2 TOTAL ITERATIONS
     1 CALLS TO GCG PACKAGE FOR TRANSPORT TIME STEP 141 IN FLOW TIME STEP   1 STRESS PERIOD   1
     2 TOTAL ITERATIONS
     1 CALLS TO GCG PACKAGE FOR TRANSPORT TIME STEP 142 IN FLOW TIME STEP   1 STRESS PERIOD   1
     2 TOTAL ITERATIONS
     1 CALLS TO GCG PACKAGE FOR TRANSPORT TIME STEP 143 IN FLOW TIME STEP   1 STRESS PERIOD   1
     2 TOTAL ITERATIONS
     1 CALLS TO GCG PACKAGE FOR TRANSPORT TIME STEP 144 IN FLOW TIME STEP   1 STRESS PERIOD   1
     2 TOTAL ITERATIONS
     1 CALLS TO GCG PACKAGE FOR TRANSPORT TIME STEP 145 IN FLOW TIME STEP   1 STRESS PERIOD   1
     2 TOTAL ITERATIONS
     1 CALLS TO GCG PACKAGE FOR TRANSPORT TIME STEP 146 IN FLOW TIME STEP   1 STRESS PERIOD   1
     2 TOTAL ITERATIONS
     1 CALLS TO GCG PACKAGE FOR TRANSPORT TIME STEP 147 IN FLOW TIME STEP   1 STRESS PERIOD   1
     2 TOTAL ITERATIONS
     1 CALLS TO GCG PACKAGE FOR TRANSPORT TIME STEP 148 IN FLOW TIME STEP   1 STRESS PERIOD   1
     2 TOTAL ITERATIONS
     1 CALLS TO GCG PACKAGE FOR TRANSPORT TIME STEP 149 IN FLOW TIME STEP   1 STRESS PERIOD   1
     2 TOTAL ITERATIONS
     1 CALLS TO GCG PACKAGE FOR TRANSPORT TIME STEP 150 IN FLOW TIME STEP   1 STRESS PERIOD   1
     2 TOTAL ITERATIONS
     1 CALLS TO GCG PACKAGE FOR TRANSPORT TIME STEP 151 IN FLOW TIME STEP   1 STRESS PERIOD   1
     2 TOTAL ITERATIONS
     1 CALLS TO GCG PACKAGE FOR TRANSPORT TIME STEP 152 IN FLOW TIME STEP   1 STRESS PERIOD   1
     2 TOTAL ITERATIONS
     1 CALLS TO GCG PACKAGE FOR TRANSPORT TIME STEP 153 IN FLOW TIME STEP   1 STRESS PERIOD   1
     2 TOTAL ITERATIONS
     1 CALLS TO GCG PACKAGE FOR TRANSPORT TIME STEP 154 IN FLOW TIME STEP   1 STRESS PERIOD   1
     2 TOTAL ITERATIONS
     1 CALLS TO GCG PACKAGE FOR TRANSPORT TIME STEP 155 IN FLOW TIME STEP   1 STRESS PERIOD   1
     2 TOTAL ITERATIONS
     1 CALLS TO GCG PACKAGE FOR TRANSPORT TIME STEP 156 IN FLOW TIME STEP   1 STRESS PERIOD   1
     2 TOTAL ITERATIONS
     1 CALLS TO GCG PACKAGE FOR TRANSPORT TIME STEP 157 IN FLOW TIME STEP   1 STRESS PERIOD   1
     2 TOTAL ITERATIONS
     1 CALLS TO GCG PACKAGE FOR TRANSPORT TIME STEP 158 IN FLOW TIME STEP   1 STRESS PERIOD   1
     2 TOTAL ITERATIONS
     1 CALLS TO GCG PACKAGE FOR TRANSPORT TIME STEP 159 IN FLOW TIME STEP   1 STRESS PERIOD   1
     2 TOTAL ITERATIONS
     1 CALLS TO GCG PACKAGE FOR TRANSPORT TIME STEP 160 IN FLOW TIME STEP   1 STRESS PERIOD   1
     2 TOTAL ITERATIONS
     1 CALLS TO GCG PACKAGE FOR TRANSPORT TIME STEP 161 IN FLOW TIME STEP   1 STRESS PERIOD   1
     2 TOTAL ITERATIONS
     1 CALLS TO GCG PACKAGE FOR TRANSPORT TIME STEP 162 IN FLOW TIME STEP   1 STRESS PERIOD   1
     2 TOTAL ITERATIONS
     1 CALLS TO GCG PACKAGE FOR TRANSPORT TIME STEP 163 IN FLOW TIME STEP   1 STRESS PERIOD   1
     2 TOTAL ITERATIONS
     1 CALLS TO GCG PACKAGE FOR TRANSPORT TIME STEP 164 IN FLOW TIME STEP   1 STRESS PERIOD   1
     2 TOTAL ITERATIONS
     1 CALLS TO GCG PACKAGE FOR TRANSPORT TIME STEP 165 IN FLOW TIME STEP   1 STRESS PERIOD   1
     2 TOTAL ITERATIONS
     1 CALLS TO GCG PACKAGE FOR TRANSPORT TIME STEP 166 IN FLOW TIME STEP   1 STRESS PERIOD   1
     2 TOTAL ITERATIONS
     1 CALLS TO GCG PACKAGE FOR TRANSPORT TIME STEP 167 IN FLOW TIME STEP   1 STRESS PERIOD   1
     2 TOTAL ITERATIONS
     1 CALLS TO GCG PACKAGE FOR TRANSPORT TIME STEP 168 IN FLOW TIME STEP   1 STRESS PERIOD   1
     2 TOTAL ITERATIONS
     1 CALLS TO GCG PACKAGE FOR TRANSPORT TIME STEP 169 IN FLOW TIME STEP   1 STRESS PERIOD   1
     2 TOTAL ITERATIONS
     1 CALLS TO GCG PACKAGE FOR TRANSPORT TIME STEP 170 IN FLOW TIME STEP   1 STRESS PERIOD   1
     2 TOTAL ITERATIONS
     1 CALLS TO GCG PACKAGE FOR TRANSPORT TIME STEP 171 IN FLOW TIME STEP   1 STRESS PERIOD   1
     2 TOTAL ITERATIONS
     1 CALLS TO GCG PACKAGE FOR TRANSPORT TIME STEP 172 IN FLOW TIME STEP   1 STRESS PERIOD   1
     2 TOTAL ITERATIONS
     1 CALLS TO GCG PACKAGE FOR TRANSPORT TIME STEP 173 IN FLOW TIME STEP   1 STRESS PERIOD   1
     2 TOTAL ITERATIONS
     1 CALLS TO GCG PACKAGE FOR TRANSPORT TIME STEP 174 IN FLOW TIME STEP   1 STRESS PERIOD   1
     2 TOTAL ITERATIONS
     1 CALLS TO GCG PACKAGE FOR TRANSPORT TIME STEP 175 IN FLOW TIME STEP   1 STRESS PERIOD   1
     2 TOTAL ITERATIONS
     1 CALLS TO GCG PACKAGE FOR TRANSPORT TIME STEP 176 IN FLOW TIME STEP   1 STRESS PERIOD   1
     2 TOTAL ITERATIONS
     1 CALLS TO GCG PACKAGE FOR TRANSPORT TIME STEP 177 IN FLOW TIME STEP   1 STRESS PERIOD   1
     2 TOTAL ITERATIONS
     1 CALLS TO GCG PACKAGE FOR TRANSPORT TIME STEP 178 IN FLOW TIME STEP   1 STRESS PERIOD   1
     2 TOTAL ITERATIONS
     1 CALLS TO GCG PACKAGE FOR TRANSPORT TIME STEP 179 IN FLOW TIME STEP   1 STRESS PERIOD   1
     2 TOTAL ITERATIONS
     1 CALLS TO GCG PACKAGE FOR TRANSPORT TIME STEP 180 IN FLOW TIME STEP   1 STRESS PERIOD   1
     2 TOTAL ITERATIONS
     1 CALLS TO GCG PACKAGE FOR TRANSPORT TIME STEP 181 IN FLOW TIME STEP   1 STRESS PERIOD   1
     2 TOTAL ITERATIONS
     1 CALLS TO GCG PACKAGE FOR TRANSPORT TIME STEP 182 IN FLOW TIME STEP   1 STRESS PERIOD   1
     2 TOTAL ITERATIONS
     1 CALLS TO GCG PACKAGE FOR TRANSPORT TIME STEP 183 IN FLOW TIME STEP   1 STRESS PERIOD   1
     2 TOTAL ITERATIONS
     1 CALLS TO GCG PACKAGE FOR TRANSPORT TIME STEP 184 IN FLOW TIME STEP   1 STRESS PERIOD   1
     2 TOTAL ITERATIONS
     1 CALLS TO GCG PACKAGE FOR TRANSPORT TIME STEP 185 IN FLOW TIME STEP   1 STRESS PERIOD   1
     2 TOTAL ITERATIONS
     1 CALLS TO GCG PACKAGE FOR TRANSPORT TIME STEP 186 IN FLOW TIME STEP   1 STRESS PERIOD   1
     2 TOTAL ITERATIONS
     1 CALLS TO GCG PACKAGE FOR TRANSPORT TIME STEP 187 IN FLOW TIME STEP   1 STRESS PERIOD   1
     2 TOTAL ITERATIONS
     1 CALLS TO GCG PACKAGE FOR TRANSPORT TIME STEP 188 IN FLOW TIME STEP   1 STRESS PERIOD   1
     2 TOTAL ITERATIONS
     1 CALLS TO GCG PACKAGE FOR TRANSPORT TIME STEP 189 IN FLOW TIME STEP   1 STRESS PERIOD   1
     2 TOTAL ITERATIONS
     1 CALLS TO GCG PACKAGE FOR TRANSPORT TIME STEP 190 IN FLOW TIME STEP   1 STRESS PERIOD   1
     2 TOTAL ITERATIONS
     1 CALLS TO GCG PACKAGE FOR TRANSPORT TIME STEP 191 IN FLOW TIME STEP   1 STRESS PERIOD   1
     2 TOTAL ITERATIONS
     1 CALLS TO GCG PACKAGE FOR TRANSPORT TIME STEP 192 IN FLOW TIME STEP   1 STRESS PERIOD   1
     2 TOTAL ITERATIONS
     1 CALLS TO GCG PACKAGE FOR TRANSPORT TIME STEP 193 IN FLOW TIME STEP   1 STRESS PERIOD   1
     2 TOTAL ITERATIONS
     1 CALLS TO GCG PACKAGE FOR TRANSPORT TIME STEP 194 IN FLOW TIME STEP   1 STRESS PERIOD   1
     2 TOTAL ITERATIONS
     1 CALLS TO GCG PACKAGE FOR TRANSPORT TIME STEP 195 IN FLOW TIME STEP   1 STRESS PERIOD   1
     2 TOTAL ITERATIONS
     1 CALLS TO GCG PACKAGE FOR TRANSPORT TIME STEP 196 IN FLOW TIME STEP   1 STRESS PERIOD   1
     2 TOTAL ITERATIONS
     1 CALLS TO GCG PACKAGE FOR TRANSPORT TIME STEP 197 IN FLOW TIME STEP   1 STRESS PERIOD   1
     2 TOTAL ITERATIONS
     1 CALLS TO GCG PACKAGE FOR TRANSPORT TIME STEP 198 IN FLOW TIME STEP   1 STRESS PERIOD   1
     2 TOTAL ITERATIONS
     1 CALLS TO GCG PACKAGE FOR TRANSPORT TIME STEP 199 IN FLOW TIME STEP   1 STRESS PERIOD   1
     2 TOTAL ITERATIONS
     1 CALLS TO GCG PACKAGE FOR TRANSPORT TIME STEP 200 IN FLOW TIME STEP   1 STRESS PERIOD   1
     2 TOTAL ITERATIONS
  MAXIMUM CONCENTRATION CHANGES FOR EACH ITERATION:
  MAX. CHANGE LAYER,ROW,COL MAX. CHANGE LAYER,ROW,COL MAX. CHANGE LAYER,ROW,COL MAX. CHANGE LAYER,ROW,COL MAX. CHANGE LAYER,ROW,COL
 ------------------------------------------------------------------------------------------------------------------------------------
   0.1543     (  1,  1,  1)  0.4441E-15 (  1,  1, 52)



 >>>>>>>>>>>>>>>>>>>>>>>>>>>>>>>>>>>>>>>>>>>>>>>>>>>>>>>FOR COMPONENT NO. 01<<<<<<<<<<<<<<<<<<<<<<<<<<<<<<<<<<<<<<<<<<<<<<<<<<<<<<<


                                            -------------------------------------------
                                                      TRANSPORT STEP NO.  200
                                            -------------------------------------------

 TOTAL ELAPSED TIME SINCE BEGINNING OF SIMULATION =   160.0000    D   
 .....................................................................

                     CUMMULATIVE MASS BUDGETS AT END OF TRANSPORT STEP  200, TIME STEP    1, STRESS PERIOD    1
                     ------------------------------------------------------------------------------------------

                                                             IN                           OUT
                                                      ----------------             ----------------
                               CONSTANT CONCENTRATION:    0.000000                    0.000000    
                                        CONSTANT HEAD:   0.2959996                  -0.4600173E-25
                               1ST/0TH ORDER REACTION:    0.000000                    0.000000    
                                MASS STORAGE (SOLUTE):   0.2928316E-29              -0.6273924E-01
                                MASS STORAGE (SORBED):   0.2592427E-22              -0.2295807    
                            ---------------------------------------------------------------------------
                                              [TOTAL]:   0.2959996     KG           -0.2923200     KG  

                                                          NET (IN - OUT):   0.3679603E-02
                                                   DISCREPANCY (PERCENT):    1.250886    


                                   ++++++++++++++++++++++++++++++++++++++++++++++++++++++++++++++
                                                       STRESS PERIOD NO.  002
                                   ++++++++++++++++++++++++++++++++++++++++++++++++++++++++++++++


 LENGTH OF CURRENT STRESS PERIOD =   1320.000    
 NUMBER OF TIME STEPS FOR CURRENT STRESS PERIOD =    1
 TIME STEP MULTIPLIER USED IN FLOW SOLUTION =   1.000000    

 ***Type of Transport Simulation is TRANSIENT

 USER-SPECIFIED TRANSPORT STEPSIZE =   0.000000    D   
 MAXIMUM NUMBER OF TRANSPORT STEPS ALLOWED  IN ONE FLOW TIME STEP =     50000
 MULTIPLIER FOR SUCCESSIVE TRANSPORT STEPS  [USED IN IMPLICIT SCHEMES] =     1.000
 MAXIMUM TRANSPORT STEP SIZE  [USED IN IMPLICIT SCHEMES] =   0.000000    D   

       NO    LAYER   ROW   COLUMN   CONCENTRATION       TYPE            COMPONENT


                                          ================================================
                                                         TIME STEP NO.  001
                                          ================================================

 FROM TIME =   160.00     TO    1480.0    



     1 CALLS TO GCG PACKAGE FOR TRANSPORT TIME STEP   1 IN FLOW TIME STEP   1 STRESS PERIOD   2
     2 TOTAL ITERATIONS
     1 CALLS TO GCG PACKAGE FOR TRANSPORT TIME STEP   2 IN FLOW TIME STEP   1 STRESS PERIOD   2
     2 TOTAL ITERATIONS
     1 CALLS TO GCG PACKAGE FOR TRANSPORT TIME STEP   3 IN FLOW TIME STEP   1 STRESS PERIOD   2
     2 TOTAL ITERATIONS
     1 CALLS TO GCG PACKAGE FOR TRANSPORT TIME STEP   4 IN FLOW TIME STEP   1 STRESS PERIOD   2
     2 TOTAL ITERATIONS
     1 CALLS TO GCG PACKAGE FOR TRANSPORT TIME STEP   5 IN FLOW TIME STEP   1 STRESS PERIOD   2
     2 TOTAL ITERATIONS
     1 CALLS TO GCG PACKAGE FOR TRANSPORT TIME STEP   6 IN FLOW TIME STEP   1 STRESS PERIOD   2
     2 TOTAL ITERATIONS
     1 CALLS TO GCG PACKAGE FOR TRANSPORT TIME STEP   7 IN FLOW TIME STEP   1 STRESS PERIOD   2
     2 TOTAL ITERATIONS
     1 CALLS TO GCG PACKAGE FOR TRANSPORT TIME STEP   8 IN FLOW TIME STEP   1 STRESS PERIOD   2
     2 TOTAL ITERATIONS
     1 CALLS TO GCG PACKAGE FOR TRANSPORT TIME STEP   9 IN FLOW TIME STEP   1 STRESS PERIOD   2
     2 TOTAL ITERATIONS
     1 CALLS TO GCG PACKAGE FOR TRANSPORT TIME STEP  10 IN FLOW TIME STEP   1 STRESS PERIOD   2
     2 TOTAL ITERATIONS
     1 CALLS TO GCG PACKAGE FOR TRANSPORT TIME STEP  11 IN FLOW TIME STEP   1 STRESS PERIOD   2
     2 TOTAL ITERATIONS
     1 CALLS TO GCG PACKAGE FOR TRANSPORT TIME STEP  12 IN FLOW TIME STEP   1 STRESS PERIOD   2
     2 TOTAL ITERATIONS
     1 CALLS TO GCG PACKAGE FOR TRANSPORT TIME STEP  13 IN FLOW TIME STEP   1 STRESS PERIOD   2
     2 TOTAL ITERATIONS
     1 CALLS TO GCG PACKAGE FOR TRANSPORT TIME STEP  14 IN FLOW TIME STEP   1 STRESS PERIOD   2
     2 TOTAL ITERATIONS
     1 CALLS TO GCG PACKAGE FOR TRANSPORT TIME STEP  15 IN FLOW TIME STEP   1 STRESS PERIOD   2
     2 TOTAL ITERATIONS
     1 CALLS TO GCG PACKAGE FOR TRANSPORT TIME STEP  16 IN FLOW TIME STEP   1 STRESS PERIOD   2
     2 TOTAL ITERATIONS
     1 CALLS TO GCG PACKAGE FOR TRANSPORT TIME STEP  17 IN FLOW TIME STEP   1 STRESS PERIOD   2
     2 TOTAL ITERATIONS
     1 CALLS TO GCG PACKAGE FOR TRANSPORT TIME STEP  18 IN FLOW TIME STEP   1 STRESS PERIOD   2
     2 TOTAL ITERATIONS
     1 CALLS TO GCG PACKAGE FOR TRANSPORT TIME STEP  19 IN FLOW TIME STEP   1 STRESS PERIOD   2
     2 TOTAL ITERATIONS
     1 CALLS TO GCG PACKAGE FOR TRANSPORT TIME STEP  20 IN FLOW TIME STEP   1 STRESS PERIOD   2
     2 TOTAL ITERATIONS
     1 CALLS TO GCG PACKAGE FOR TRANSPORT TIME STEP  21 IN FLOW TIME STEP   1 STRESS PERIOD   2
     2 TOTAL ITERATIONS
     1 CALLS TO GCG PACKAGE FOR TRANSPORT TIME STEP  22 IN FLOW TIME STEP   1 STRESS PERIOD   2
     2 TOTAL ITERATIONS
     1 CALLS TO GCG PACKAGE FOR TRANSPORT TIME STEP  23 IN FLOW TIME STEP   1 STRESS PERIOD   2
     2 TOTAL ITERATIONS
     1 CALLS TO GCG PACKAGE FOR TRANSPORT TIME STEP  24 IN FLOW TIME STEP   1 STRESS PERIOD   2
     2 TOTAL ITERATIONS
     1 CALLS TO GCG PACKAGE FOR TRANSPORT TIME STEP  25 IN FLOW TIME STEP   1 STRESS PERIOD   2
     2 TOTAL ITERATIONS
     1 CALLS TO GCG PACKAGE FOR TRANSPORT TIME STEP  26 IN FLOW TIME STEP   1 STRESS PERIOD   2
     2 TOTAL ITERATIONS
     1 CALLS TO GCG PACKAGE FOR TRANSPORT TIME STEP  27 IN FLOW TIME STEP   1 STRESS PERIOD   2
     2 TOTAL ITERATIONS
     1 CALLS TO GCG PACKAGE FOR TRANSPORT TIME STEP  28 IN FLOW TIME STEP   1 STRESS PERIOD   2
     2 TOTAL ITERATIONS
     1 CALLS TO GCG PACKAGE FOR TRANSPORT TIME STEP  29 IN FLOW TIME STEP   1 STRESS PERIOD   2
     2 TOTAL ITERATIONS
     1 CALLS TO GCG PACKAGE FOR TRANSPORT TIME STEP  30 IN FLOW TIME STEP   1 STRESS PERIOD   2
     2 TOTAL ITERATIONS
     1 CALLS TO GCG PACKAGE FOR TRANSPORT TIME STEP  31 IN FLOW TIME STEP   1 STRESS PERIOD   2
     2 TOTAL ITERATIONS
     1 CALLS TO GCG PACKAGE FOR TRANSPORT TIME STEP  32 IN FLOW TIME STEP   1 STRESS PERIOD   2
     2 TOTAL ITERATIONS
     1 CALLS TO GCG PACKAGE FOR TRANSPORT TIME STEP  33 IN FLOW TIME STEP   1 STRESS PERIOD   2
     2 TOTAL ITERATIONS
     1 CALLS TO GCG PACKAGE FOR TRANSPORT TIME STEP  34 IN FLOW TIME STEP   1 STRESS PERIOD   2
     2 TOTAL ITERATIONS
     1 CALLS TO GCG PACKAGE FOR TRANSPORT TIME STEP  35 IN FLOW TIME STEP   1 STRESS PERIOD   2
     2 TOTAL ITERATIONS
     1 CALLS TO GCG PACKAGE FOR TRANSPORT TIME STEP  36 IN FLOW TIME STEP   1 STRESS PERIOD   2
     2 TOTAL ITERATIONS
     1 CALLS TO GCG PACKAGE FOR TRANSPORT TIME STEP  37 IN FLOW TIME STEP   1 STRESS PERIOD   2
     2 TOTAL ITERATIONS
     1 CALLS TO GCG PACKAGE FOR TRANSPORT TIME STEP  38 IN FLOW TIME STEP   1 STRESS PERIOD   2
     2 TOTAL ITERATIONS
     1 CALLS TO GCG PACKAGE FOR TRANSPORT TIME STEP  39 IN FLOW TIME STEP   1 STRESS PERIOD   2
     2 TOTAL ITERATIONS
     1 CALLS TO GCG PACKAGE FOR TRANSPORT TIME STEP  40 IN FLOW TIME STEP   1 STRESS PERIOD   2
     2 TOTAL ITERATIONS
     1 CALLS TO GCG PACKAGE FOR TRANSPORT TIME STEP  41 IN FLOW TIME STEP   1 STRESS PERIOD   2
     2 TOTAL ITERATIONS
     1 CALLS TO GCG PACKAGE FOR TRANSPORT TIME STEP  42 IN FLOW TIME STEP   1 STRESS PERIOD   2
     2 TOTAL ITERATIONS
     1 CALLS TO GCG PACKAGE FOR TRANSPORT TIME STEP  43 IN FLOW TIME STEP   1 STRESS PERIOD   2
     2 TOTAL ITERATIONS
     1 CALLS TO GCG PACKAGE FOR TRANSPORT TIME STEP  44 IN FLOW TIME STEP   1 STRESS PERIOD   2
     2 TOTAL ITERATIONS
     1 CALLS TO GCG PACKAGE FOR TRANSPORT TIME STEP  45 IN FLOW TIME STEP   1 STRESS PERIOD   2
     2 TOTAL ITERATIONS
     1 CALLS TO GCG PACKAGE FOR TRANSPORT TIME STEP  46 IN FLOW TIME STEP   1 STRESS PERIOD   2
     2 TOTAL ITERATIONS
     1 CALLS TO GCG PACKAGE FOR TRANSPORT TIME STEP  47 IN FLOW TIME STEP   1 STRESS PERIOD   2
     2 TOTAL ITERATIONS
     1 CALLS TO GCG PACKAGE FOR TRANSPORT TIME STEP  48 IN FLOW TIME STEP   1 STRESS PERIOD   2
     2 TOTAL ITERATIONS
     1 CALLS TO GCG PACKAGE FOR TRANSPORT TIME STEP  49 IN FLOW TIME STEP   1 STRESS PERIOD   2
     2 TOTAL ITERATIONS
     1 CALLS TO GCG PACKAGE FOR TRANSPORT TIME STEP  50 IN FLOW TIME STEP   1 STRESS PERIOD   2
     2 TOTAL ITERATIONS
     1 CALLS TO GCG PACKAGE FOR TRANSPORT TIME STEP  51 IN FLOW TIME STEP   1 STRESS PERIOD   2
     2 TOTAL ITERATIONS
     1 CALLS TO GCG PACKAGE FOR TRANSPORT TIME STEP  52 IN FLOW TIME STEP   1 STRESS PERIOD   2
     2 TOTAL ITERATIONS
     1 CALLS TO GCG PACKAGE FOR TRANSPORT TIME STEP  53 IN FLOW TIME STEP   1 STRESS PERIOD   2
     2 TOTAL ITERATIONS
     1 CALLS TO GCG PACKAGE FOR TRANSPORT TIME STEP  54 IN FLOW TIME STEP   1 STRESS PERIOD   2
     2 TOTAL ITERATIONS
     1 CALLS TO GCG PACKAGE FOR TRANSPORT TIME STEP  55 IN FLOW TIME STEP   1 STRESS PERIOD   2
     2 TOTAL ITERATIONS
     1 CALLS TO GCG PACKAGE FOR TRANSPORT TIME STEP  56 IN FLOW TIME STEP   1 STRESS PERIOD   2
     2 TOTAL ITERATIONS
     1 CALLS TO GCG PACKAGE FOR TRANSPORT TIME STEP  57 IN FLOW TIME STEP   1 STRESS PERIOD   2
     2 TOTAL ITERATIONS
     1 CALLS TO GCG PACKAGE FOR TRANSPORT TIME STEP  58 IN FLOW TIME STEP   1 STRESS PERIOD   2
     2 TOTAL ITERATIONS
     1 CALLS TO GCG PACKAGE FOR TRANSPORT TIME STEP  59 IN FLOW TIME STEP   1 STRESS PERIOD   2
     2 TOTAL ITERATIONS
     1 CALLS TO GCG PACKAGE FOR TRANSPORT TIME STEP  60 IN FLOW TIME STEP   1 STRESS PERIOD   2
     2 TOTAL ITERATIONS
     1 CALLS TO GCG PACKAGE FOR TRANSPORT TIME STEP  61 IN FLOW TIME STEP   1 STRESS PERIOD   2
     2 TOTAL ITERATIONS
     1 CALLS TO GCG PACKAGE FOR TRANSPORT TIME STEP  62 IN FLOW TIME STEP   1 STRESS PERIOD   2
     2 TOTAL ITERATIONS
     1 CALLS TO GCG PACKAGE FOR TRANSPORT TIME STEP  63 IN FLOW TIME STEP   1 STRESS PERIOD   2
     2 TOTAL ITERATIONS
     1 CALLS TO GCG PACKAGE FOR TRANSPORT TIME STEP  64 IN FLOW TIME STEP   1 STRESS PERIOD   2
     2 TOTAL ITERATIONS
     1 CALLS TO GCG PACKAGE FOR TRANSPORT TIME STEP  65 IN FLOW TIME STEP   1 STRESS PERIOD   2
     2 TOTAL ITERATIONS
     1 CALLS TO GCG PACKAGE FOR TRANSPORT TIME STEP  66 IN FLOW TIME STEP   1 STRESS PERIOD   2
     2 TOTAL ITERATIONS
     1 CALLS TO GCG PACKAGE FOR TRANSPORT TIME STEP  67 IN FLOW TIME STEP   1 STRESS PERIOD   2
     2 TOTAL ITERATIONS
     1 CALLS TO GCG PACKAGE FOR TRANSPORT TIME STEP  68 IN FLOW TIME STEP   1 STRESS PERIOD   2
     2 TOTAL ITERATIONS
     1 CALLS TO GCG PACKAGE FOR TRANSPORT TIME STEP  69 IN FLOW TIME STEP   1 STRESS PERIOD   2
     2 TOTAL ITERATIONS
     1 CALLS TO GCG PACKAGE FOR TRANSPORT TIME STEP  70 IN FLOW TIME STEP   1 STRESS PERIOD   2
     2 TOTAL ITERATIONS
     1 CALLS TO GCG PACKAGE FOR TRANSPORT TIME STEP  71 IN FLOW TIME STEP   1 STRESS PERIOD   2
     2 TOTAL ITERATIONS
     1 CALLS TO GCG PACKAGE FOR TRANSPORT TIME STEP  72 IN FLOW TIME STEP   1 STRESS PERIOD   2
     2 TOTAL ITERATIONS
     1 CALLS TO GCG PACKAGE FOR TRANSPORT TIME STEP  73 IN FLOW TIME STEP   1 STRESS PERIOD   2
     2 TOTAL ITERATIONS
     1 CALLS TO GCG PACKAGE FOR TRANSPORT TIME STEP  74 IN FLOW TIME STEP   1 STRESS PERIOD   2
     2 TOTAL ITERATIONS
     1 CALLS TO GCG PACKAGE FOR TRANSPORT TIME STEP  75 IN FLOW TIME STEP   1 STRESS PERIOD   2
     2 TOTAL ITERATIONS
     1 CALLS TO GCG PACKAGE FOR TRANSPORT TIME STEP  76 IN FLOW TIME STEP   1 STRESS PERIOD   2
     2 TOTAL ITERATIONS
     1 CALLS TO GCG PACKAGE FOR TRANSPORT TIME STEP  77 IN FLOW TIME STEP   1 STRESS PERIOD   2
     2 TOTAL ITERATIONS
     1 CALLS TO GCG PACKAGE FOR TRANSPORT TIME STEP  78 IN FLOW TIME STEP   1 STRESS PERIOD   2
     2 TOTAL ITERATIONS
     1 CALLS TO GCG PACKAGE FOR TRANSPORT TIME STEP  79 IN FLOW TIME STEP   1 STRESS PERIOD   2
     2 TOTAL ITERATIONS
     1 CALLS TO GCG PACKAGE FOR TRANSPORT TIME STEP  80 IN FLOW TIME STEP   1 STRESS PERIOD   2
     2 TOTAL ITERATIONS
     1 CALLS TO GCG PACKAGE FOR TRANSPORT TIME STEP  81 IN FLOW TIME STEP   1 STRESS PERIOD   2
     2 TOTAL ITERATIONS
     1 CALLS TO GCG PACKAGE FOR TRANSPORT TIME STEP  82 IN FLOW TIME STEP   1 STRESS PERIOD   2
     2 TOTAL ITERATIONS
     1 CALLS TO GCG PACKAGE FOR TRANSPORT TIME STEP  83 IN FLOW TIME STEP   1 STRESS PERIOD   2
     2 TOTAL ITERATIONS
     1 CALLS TO GCG PACKAGE FOR TRANSPORT TIME STEP  84 IN FLOW TIME STEP   1 STRESS PERIOD   2
     2 TOTAL ITERATIONS
     1 CALLS TO GCG PACKAGE FOR TRANSPORT TIME STEP  85 IN FLOW TIME STEP   1 STRESS PERIOD   2
     2 TOTAL ITERATIONS
     1 CALLS TO GCG PACKAGE FOR TRANSPORT TIME STEP  86 IN FLOW TIME STEP   1 STRESS PERIOD   2
     2 TOTAL ITERATIONS
     1 CALLS TO GCG PACKAGE FOR TRANSPORT TIME STEP  87 IN FLOW TIME STEP   1 STRESS PERIOD   2
     2 TOTAL ITERATIONS
     1 CALLS TO GCG PACKAGE FOR TRANSPORT TIME STEP  88 IN FLOW TIME STEP   1 STRESS PERIOD   2
     2 TOTAL ITERATIONS
     1 CALLS TO GCG PACKAGE FOR TRANSPORT TIME STEP  89 IN FLOW TIME STEP   1 STRESS PERIOD   2
     2 TOTAL ITERATIONS
     1 CALLS TO GCG PACKAGE FOR TRANSPORT TIME STEP  90 IN FLOW TIME STEP   1 STRESS PERIOD   2
     2 TOTAL ITERATIONS
     1 CALLS TO GCG PACKAGE FOR TRANSPORT TIME STEP  91 IN FLOW TIME STEP   1 STRESS PERIOD   2
     2 TOTAL ITERATIONS
     1 CALLS TO GCG PACKAGE FOR TRANSPORT TIME STEP  92 IN FLOW TIME STEP   1 STRESS PERIOD   2
     2 TOTAL ITERATIONS
     1 CALLS TO GCG PACKAGE FOR TRANSPORT TIME STEP  93 IN FLOW TIME STEP   1 STRESS PERIOD   2
     2 TOTAL ITERATIONS
     1 CALLS TO GCG PACKAGE FOR TRANSPORT TIME STEP  94 IN FLOW TIME STEP   1 STRESS PERIOD   2
     2 TOTAL ITERATIONS
     1 CALLS TO GCG PACKAGE FOR TRANSPORT TIME STEP  95 IN FLOW TIME STEP   1 STRESS PERIOD   2
     2 TOTAL ITERATIONS
     1 CALLS TO GCG PACKAGE FOR TRANSPORT TIME STEP  96 IN FLOW TIME STEP   1 STRESS PERIOD   2
     2 TOTAL ITERATIONS
     1 CALLS TO GCG PACKAGE FOR TRANSPORT TIME STEP  97 IN FLOW TIME STEP   1 STRESS PERIOD   2
     2 TOTAL ITERATIONS
     1 CALLS TO GCG PACKAGE FOR TRANSPORT TIME STEP  98 IN FLOW TIME STEP   1 STRESS PERIOD   2
     2 TOTAL ITERATIONS
     1 CALLS TO GCG PACKAGE FOR TRANSPORT TIME STEP  99 IN FLOW TIME STEP   1 STRESS PERIOD   2
     2 TOTAL ITERATIONS
     1 CALLS TO GCG PACKAGE FOR TRANSPORT TIME STEP 100 IN FLOW TIME STEP   1 STRESS PERIOD   2
     2 TOTAL ITERATIONS
     1 CALLS TO GCG PACKAGE FOR TRANSPORT TIME STEP 101 IN FLOW TIME STEP   1 STRESS PERIOD   2
     2 TOTAL ITERATIONS
     1 CALLS TO GCG PACKAGE FOR TRANSPORT TIME STEP 102 IN FLOW TIME STEP   1 STRESS PERIOD   2
     2 TOTAL ITERATIONS
     1 CALLS TO GCG PACKAGE FOR TRANSPORT TIME STEP 103 IN FLOW TIME STEP   1 STRESS PERIOD   2
     2 TOTAL ITERATIONS
     1 CALLS TO GCG PACKAGE FOR TRANSPORT TIME STEP 104 IN FLOW TIME STEP   1 STRESS PERIOD   2
     2 TOTAL ITERATIONS
     1 CALLS TO GCG PACKAGE FOR TRANSPORT TIME STEP 105 IN FLOW TIME STEP   1 STRESS PERIOD   2
     2 TOTAL ITERATIONS
     1 CALLS TO GCG PACKAGE FOR TRANSPORT TIME STEP 106 IN FLOW TIME STEP   1 STRESS PERIOD   2
     2 TOTAL ITERATIONS
     1 CALLS TO GCG PACKAGE FOR TRANSPORT TIME STEP 107 IN FLOW TIME STEP   1 STRESS PERIOD   2
     2 TOTAL ITERATIONS
     1 CALLS TO GCG PACKAGE FOR TRANSPORT TIME STEP 108 IN FLOW TIME STEP   1 STRESS PERIOD   2
     2 TOTAL ITERATIONS
     1 CALLS TO GCG PACKAGE FOR TRANSPORT TIME STEP 109 IN FLOW TIME STEP   1 STRESS PERIOD   2
     2 TOTAL ITERATIONS
     1 CALLS TO GCG PACKAGE FOR TRANSPORT TIME STEP 110 IN FLOW TIME STEP   1 STRESS PERIOD   2
     2 TOTAL ITERATIONS
     1 CALLS TO GCG PACKAGE FOR TRANSPORT TIME STEP 111 IN FLOW TIME STEP   1 STRESS PERIOD   2
     2 TOTAL ITERATIONS
     1 CALLS TO GCG PACKAGE FOR TRANSPORT TIME STEP 112 IN FLOW TIME STEP   1 STRESS PERIOD   2
     2 TOTAL ITERATIONS
     1 CALLS TO GCG PACKAGE FOR TRANSPORT TIME STEP 113 IN FLOW TIME STEP   1 STRESS PERIOD   2
     2 TOTAL ITERATIONS
     1 CALLS TO GCG PACKAGE FOR TRANSPORT TIME STEP 114 IN FLOW TIME STEP   1 STRESS PERIOD   2
     2 TOTAL ITERATIONS
     1 CALLS TO GCG PACKAGE FOR TRANSPORT TIME STEP 115 IN FLOW TIME STEP   1 STRESS PERIOD   2
     2 TOTAL ITERATIONS
     1 CALLS TO GCG PACKAGE FOR TRANSPORT TIME STEP 116 IN FLOW TIME STEP   1 STRESS PERIOD   2
     2 TOTAL ITERATIONS
     1 CALLS TO GCG PACKAGE FOR TRANSPORT TIME STEP 117 IN FLOW TIME STEP   1 STRESS PERIOD   2
     2 TOTAL ITERATIONS
     1 CALLS TO GCG PACKAGE FOR TRANSPORT TIME STEP 118 IN FLOW TIME STEP   1 STRESS PERIOD   2
     2 TOTAL ITERATIONS
     1 CALLS TO GCG PACKAGE FOR TRANSPORT TIME STEP 119 IN FLOW TIME STEP   1 STRESS PERIOD   2
     2 TOTAL ITERATIONS
     1 CALLS TO GCG PACKAGE FOR TRANSPORT TIME STEP 120 IN FLOW TIME STEP   1 STRESS PERIOD   2
     2 TOTAL ITERATIONS
     1 CALLS TO GCG PACKAGE FOR TRANSPORT TIME STEP 121 IN FLOW TIME STEP   1 STRESS PERIOD   2
     2 TOTAL ITERATIONS
     1 CALLS TO GCG PACKAGE FOR TRANSPORT TIME STEP 122 IN FLOW TIME STEP   1 STRESS PERIOD   2
     2 TOTAL ITERATIONS
     1 CALLS TO GCG PACKAGE FOR TRANSPORT TIME STEP 123 IN FLOW TIME STEP   1 STRESS PERIOD   2
     2 TOTAL ITERATIONS
     1 CALLS TO GCG PACKAGE FOR TRANSPORT TIME STEP 124 IN FLOW TIME STEP   1 STRESS PERIOD   2
     2 TOTAL ITERATIONS
     1 CALLS TO GCG PACKAGE FOR TRANSPORT TIME STEP 125 IN FLOW TIME STEP   1 STRESS PERIOD   2
     2 TOTAL ITERATIONS
     1 CALLS TO GCG PACKAGE FOR TRANSPORT TIME STEP 126 IN FLOW TIME STEP   1 STRESS PERIOD   2
     2 TOTAL ITERATIONS
     1 CALLS TO GCG PACKAGE FOR TRANSPORT TIME STEP 127 IN FLOW TIME STEP   1 STRESS PERIOD   2
     2 TOTAL ITERATIONS
     1 CALLS TO GCG PACKAGE FOR TRANSPORT TIME STEP 128 IN FLOW TIME STEP   1 STRESS PERIOD   2
     2 TOTAL ITERATIONS
     1 CALLS TO GCG PACKAGE FOR TRANSPORT TIME STEP 129 IN FLOW TIME STEP   1 STRESS PERIOD   2
     2 TOTAL ITERATIONS
     1 CALLS TO GCG PACKAGE FOR TRANSPORT TIME STEP 130 IN FLOW TIME STEP   1 STRESS PERIOD   2
     2 TOTAL ITERATIONS
     1 CALLS TO GCG PACKAGE FOR TRANSPORT TIME STEP 131 IN FLOW TIME STEP   1 STRESS PERIOD   2
     2 TOTAL ITERATIONS
     1 CALLS TO GCG PACKAGE FOR TRANSPORT TIME STEP 132 IN FLOW TIME STEP   1 STRESS PERIOD   2
     2 TOTAL ITERATIONS
     1 CALLS TO GCG PACKAGE FOR TRANSPORT TIME STEP 133 IN FLOW TIME STEP   1 STRESS PERIOD   2
     2 TOTAL ITERATIONS
     1 CALLS TO GCG PACKAGE FOR TRANSPORT TIME STEP 134 IN FLOW TIME STEP   1 STRESS PERIOD   2
     2 TOTAL ITERATIONS
     1 CALLS TO GCG PACKAGE FOR TRANSPORT TIME STEP 135 IN FLOW TIME STEP   1 STRESS PERIOD   2
     2 TOTAL ITERATIONS
     1 CALLS TO GCG PACKAGE FOR TRANSPORT TIME STEP 136 IN FLOW TIME STEP   1 STRESS PERIOD   2
     2 TOTAL ITERATIONS
     1 CALLS TO GCG PACKAGE FOR TRANSPORT TIME STEP 137 IN FLOW TIME STEP   1 STRESS PERIOD   2
     2 TOTAL ITERATIONS
     1 CALLS TO GCG PACKAGE FOR TRANSPORT TIME STEP 138 IN FLOW TIME STEP   1 STRESS PERIOD   2
     2 TOTAL ITERATIONS
     1 CALLS TO GCG PACKAGE FOR TRANSPORT TIME STEP 139 IN FLOW TIME STEP   1 STRESS PERIOD   2
     2 TOTAL ITERATIONS
     1 CALLS TO GCG PACKAGE FOR TRANSPORT TIME STEP 140 IN FLOW TIME STEP   1 STRESS PERIOD   2
     2 TOTAL ITERATIONS
     1 CALLS TO GCG PACKAGE FOR TRANSPORT TIME STEP 141 IN FLOW TIME STEP   1 STRESS PERIOD   2
     2 TOTAL ITERATIONS
     1 CALLS TO GCG PACKAGE FOR TRANSPORT TIME STEP 142 IN FLOW TIME STEP   1 STRESS PERIOD   2
     2 TOTAL ITERATIONS
     1 CALLS TO GCG PACKAGE FOR TRANSPORT TIME STEP 143 IN FLOW TIME STEP   1 STRESS PERIOD   2
     2 TOTAL ITERATIONS
     1 CALLS TO GCG PACKAGE FOR TRANSPORT TIME STEP 144 IN FLOW TIME STEP   1 STRESS PERIOD   2
     2 TOTAL ITERATIONS
     1 CALLS TO GCG PACKAGE FOR TRANSPORT TIME STEP 145 IN FLOW TIME STEP   1 STRESS PERIOD   2
     2 TOTAL ITERATIONS
     1 CALLS TO GCG PACKAGE FOR TRANSPORT TIME STEP 146 IN FLOW TIME STEP   1 STRESS PERIOD   2
     2 TOTAL ITERATIONS
     1 CALLS TO GCG PACKAGE FOR TRANSPORT TIME STEP 147 IN FLOW TIME STEP   1 STRESS PERIOD   2
     2 TOTAL ITERATIONS
     1 CALLS TO GCG PACKAGE FOR TRANSPORT TIME STEP 148 IN FLOW TIME STEP   1 STRESS PERIOD   2
     2 TOTAL ITERATIONS
     1 CALLS TO GCG PACKAGE FOR TRANSPORT TIME STEP 149 IN FLOW TIME STEP   1 STRESS PERIOD   2
     2 TOTAL ITERATIONS
     1 CALLS TO GCG PACKAGE FOR TRANSPORT TIME STEP 150 IN FLOW TIME STEP   1 STRESS PERIOD   2
     2 TOTAL ITERATIONS
     1 CALLS TO GCG PACKAGE FOR TRANSPORT TIME STEP 151 IN FLOW TIME STEP   1 STRESS PERIOD   2
     2 TOTAL ITERATIONS
     1 CALLS TO GCG PACKAGE FOR TRANSPORT TIME STEP 152 IN FLOW TIME STEP   1 STRESS PERIOD   2
     2 TOTAL ITERATIONS
     1 CALLS TO GCG PACKAGE FOR TRANSPORT TIME STEP 153 IN FLOW TIME STEP   1 STRESS PERIOD   2
     2 TOTAL ITERATIONS
     1 CALLS TO GCG PACKAGE FOR TRANSPORT TIME STEP 154 IN FLOW TIME STEP   1 STRESS PERIOD   2
     2 TOTAL ITERATIONS
     1 CALLS TO GCG PACKAGE FOR TRANSPORT TIME STEP 155 IN FLOW TIME STEP   1 STRESS PERIOD   2
     2 TOTAL ITERATIONS
     1 CALLS TO GCG PACKAGE FOR TRANSPORT TIME STEP 156 IN FLOW TIME STEP   1 STRESS PERIOD   2
     2 TOTAL ITERATIONS
     1 CALLS TO GCG PACKAGE FOR TRANSPORT TIME STEP 157 IN FLOW TIME STEP   1 STRESS PERIOD   2
     2 TOTAL ITERATIONS
     1 CALLS TO GCG PACKAGE FOR TRANSPORT TIME STEP 158 IN FLOW TIME STEP   1 STRESS PERIOD   2
     2 TOTAL ITERATIONS
     1 CALLS TO GCG PACKAGE FOR TRANSPORT TIME STEP 159 IN FLOW TIME STEP   1 STRESS PERIOD   2
     2 TOTAL ITERATIONS
     1 CALLS TO GCG PACKAGE FOR TRANSPORT TIME STEP 160 IN FLOW TIME STEP   1 STRESS PERIOD   2
     2 TOTAL ITERATIONS
     1 CALLS TO GCG PACKAGE FOR TRANSPORT TIME STEP 161 IN FLOW TIME STEP   1 STRESS PERIOD   2
     2 TOTAL ITERATIONS
     1 CALLS TO GCG PACKAGE FOR TRANSPORT TIME STEP 162 IN FLOW TIME STEP   1 STRESS PERIOD   2
     2 TOTAL ITERATIONS
     1 CALLS TO GCG PACKAGE FOR TRANSPORT TIME STEP 163 IN FLOW TIME STEP   1 STRESS PERIOD   2
     2 TOTAL ITERATIONS
     1 CALLS TO GCG PACKAGE FOR TRANSPORT TIME STEP 164 IN FLOW TIME STEP   1 STRESS PERIOD   2
     2 TOTAL ITERATIONS
     1 CALLS TO GCG PACKAGE FOR TRANSPORT TIME STEP 165 IN FLOW TIME STEP   1 STRESS PERIOD   2
     2 TOTAL ITERATIONS
     1 CALLS TO GCG PACKAGE FOR TRANSPORT TIME STEP 166 IN FLOW TIME STEP   1 STRESS PERIOD   2
     2 TOTAL ITERATIONS
     1 CALLS TO GCG PACKAGE FOR TRANSPORT TIME STEP 167 IN FLOW TIME STEP   1 STRESS PERIOD   2
     2 TOTAL ITERATIONS
     1 CALLS TO GCG PACKAGE FOR TRANSPORT TIME STEP 168 IN FLOW TIME STEP   1 STRESS PERIOD   2
     2 TOTAL ITERATIONS
     1 CALLS TO GCG PACKAGE FOR TRANSPORT TIME STEP 169 IN FLOW TIME STEP   1 STRESS PERIOD   2
     2 TOTAL ITERATIONS
     1 CALLS TO GCG PACKAGE FOR TRANSPORT TIME STEP 170 IN FLOW TIME STEP   1 STRESS PERIOD   2
     2 TOTAL ITERATIONS
     1 CALLS TO GCG PACKAGE FOR TRANSPORT TIME STEP 171 IN FLOW TIME STEP   1 STRESS PERIOD   2
     2 TOTAL ITERATIONS
     1 CALLS TO GCG PACKAGE FOR TRANSPORT TIME STEP 172 IN FLOW TIME STEP   1 STRESS PERIOD   2
     2 TOTAL ITERATIONS
     1 CALLS TO GCG PACKAGE FOR TRANSPORT TIME STEP 173 IN FLOW TIME STEP   1 STRESS PERIOD   2
     2 TOTAL ITERATIONS
     1 CALLS TO GCG PACKAGE FOR TRANSPORT TIME STEP 174 IN FLOW TIME STEP   1 STRESS PERIOD   2
     2 TOTAL ITERATIONS
     1 CALLS TO GCG PACKAGE FOR TRANSPORT TIME STEP 175 IN FLOW TIME STEP   1 STRESS PERIOD   2
     2 TOTAL ITERATIONS
     1 CALLS TO GCG PACKAGE FOR TRANSPORT TIME STEP 176 IN FLOW TIME STEP   1 STRESS PERIOD   2
     2 TOTAL ITERATIONS
     1 CALLS TO GCG PACKAGE FOR TRANSPORT TIME STEP 177 IN FLOW TIME STEP   1 STRESS PERIOD   2
     2 TOTAL ITERATIONS
     1 CALLS TO GCG PACKAGE FOR TRANSPORT TIME STEP 178 IN FLOW TIME STEP   1 STRESS PERIOD   2
     2 TOTAL ITERATIONS
     1 CALLS TO GCG PACKAGE FOR TRANSPORT TIME STEP 179 IN FLOW TIME STEP   1 STRESS PERIOD   2
     2 TOTAL ITERATIONS
     1 CALLS TO GCG PACKAGE FOR TRANSPORT TIME STEP 180 IN FLOW TIME STEP   1 STRESS PERIOD   2
     2 TOTAL ITERATIONS
     1 CALLS TO GCG PACKAGE FOR TRANSPORT TIME STEP 181 IN FLOW TIME STEP   1 STRESS PERIOD   2
     2 TOTAL ITERATIONS
     1 CALLS TO GCG PACKAGE FOR TRANSPORT TIME STEP 182 IN FLOW TIME STEP   1 STRESS PERIOD   2
     2 TOTAL ITERATIONS
     1 CALLS TO GCG PACKAGE FOR TRANSPORT TIME STEP 183 IN FLOW TIME STEP   1 STRESS PERIOD   2
     2 TOTAL ITERATIONS
     1 CALLS TO GCG PACKAGE FOR TRANSPORT TIME STEP 184 IN FLOW TIME STEP   1 STRESS PERIOD   2
     2 TOTAL ITERATIONS
     1 CALLS TO GCG PACKAGE FOR TRANSPORT TIME STEP 185 IN FLOW TIME STEP   1 STRESS PERIOD   2
     2 TOTAL ITERATIONS
     1 CALLS TO GCG PACKAGE FOR TRANSPORT TIME STEP 186 IN FLOW TIME STEP   1 STRESS PERIOD   2
     2 TOTAL ITERATIONS
     1 CALLS TO GCG PACKAGE FOR TRANSPORT TIME STEP 187 IN FLOW TIME STEP   1 STRESS PERIOD   2
     2 TOTAL ITERATIONS
     1 CALLS TO GCG PACKAGE FOR TRANSPORT TIME STEP 188 IN FLOW TIME STEP   1 STRESS PERIOD   2
     2 TOTAL ITERATIONS
     1 CALLS TO GCG PACKAGE FOR TRANSPORT TIME STEP 189 IN FLOW TIME STEP   1 STRESS PERIOD   2
     2 TOTAL ITERATIONS
     1 CALLS TO GCG PACKAGE FOR TRANSPORT TIME STEP 190 IN FLOW TIME STEP   1 STRESS PERIOD   2
     2 TOTAL ITERATIONS
     1 CALLS TO GCG PACKAGE FOR TRANSPORT TIME STEP 191 IN FLOW TIME STEP   1 STRESS PERIOD   2
     2 TOTAL ITERATIONS
     1 CALLS TO GCG PACKAGE FOR TRANSPORT TIME STEP 192 IN FLOW TIME STEP   1 STRESS PERIOD   2
     2 TOTAL ITERATIONS
     1 CALLS TO GCG PACKAGE FOR TRANSPORT TIME STEP 193 IN FLOW TIME STEP   1 STRESS PERIOD   2
     2 TOTAL ITERATIONS
     1 CALLS TO GCG PACKAGE FOR TRANSPORT TIME STEP 194 IN FLOW TIME STEP   1 STRESS PERIOD   2
     2 TOTAL ITERATIONS
     1 CALLS TO GCG PACKAGE FOR TRANSPORT TIME STEP 195 IN FLOW TIME STEP   1 STRESS PERIOD   2
     2 TOTAL ITERATIONS
     1 CALLS TO GCG PACKAGE FOR TRANSPORT TIME STEP 196 IN FLOW TIME STEP   1 STRESS PERIOD   2
     2 TOTAL ITERATIONS
     1 CALLS TO GCG PACKAGE FOR TRANSPORT TIME STEP 197 IN FLOW TIME STEP   1 STRESS PERIOD   2
     2 TOTAL ITERATIONS
     1 CALLS TO GCG PACKAGE FOR TRANSPORT TIME STEP 198 IN FLOW TIME STEP   1 STRESS PERIOD   2
     2 TOTAL ITERATIONS
     1 CALLS TO GCG PACKAGE FOR TRANSPORT TIME STEP 199 IN FLOW TIME STEP   1 STRESS PERIOD   2
     2 TOTAL ITERATIONS
     1 CALLS TO GCG PACKAGE FOR TRANSPORT TIME STEP 200 IN FLOW TIME STEP   1 STRESS PERIOD   2
     2 TOTAL ITERATIONS
     1 CALLS TO GCG PACKAGE FOR TRANSPORT TIME STEP 201 IN FLOW TIME STEP   1 STRESS PERIOD   2
     2 TOTAL ITERATIONS
     1 CALLS TO GCG PACKAGE FOR TRANSPORT TIME STEP 202 IN FLOW TIME STEP   1 STRESS PERIOD   2
     2 TOTAL ITERATIONS
     1 CALLS TO GCG PACKAGE FOR TRANSPORT TIME STEP 203 IN FLOW TIME STEP   1 STRESS PERIOD   2
     2 TOTAL ITERATIONS
     1 CALLS TO GCG PACKAGE FOR TRANSPORT TIME STEP 204 IN FLOW TIME STEP   1 STRESS PERIOD   2
     2 TOTAL ITERATIONS
     1 CALLS TO GCG PACKAGE FOR TRANSPORT TIME STEP 205 IN FLOW TIME STEP   1 STRESS PERIOD   2
     2 TOTAL ITERATIONS
     1 CALLS TO GCG PACKAGE FOR TRANSPORT TIME STEP 206 IN FLOW TIME STEP   1 STRESS PERIOD   2
     2 TOTAL ITERATIONS
     1 CALLS TO GCG PACKAGE FOR TRANSPORT TIME STEP 207 IN FLOW TIME STEP   1 STRESS PERIOD   2
     2 TOTAL ITERATIONS
     1 CALLS TO GCG PACKAGE FOR TRANSPORT TIME STEP 208 IN FLOW TIME STEP   1 STRESS PERIOD   2
     2 TOTAL ITERATIONS
     1 CALLS TO GCG PACKAGE FOR TRANSPORT TIME STEP 209 IN FLOW TIME STEP   1 STRESS PERIOD   2
     2 TOTAL ITERATIONS
     1 CALLS TO GCG PACKAGE FOR TRANSPORT TIME STEP 210 IN FLOW TIME STEP   1 STRESS PERIOD   2
     2 TOTAL ITERATIONS
     1 CALLS TO GCG PACKAGE FOR TRANSPORT TIME STEP 211 IN FLOW TIME STEP   1 STRESS PERIOD   2
     2 TOTAL ITERATIONS
     1 CALLS TO GCG PACKAGE FOR TRANSPORT TIME STEP 212 IN FLOW TIME STEP   1 STRESS PERIOD   2
     2 TOTAL ITERATIONS
     1 CALLS TO GCG PACKAGE FOR TRANSPORT TIME STEP 213 IN FLOW TIME STEP   1 STRESS PERIOD   2
     2 TOTAL ITERATIONS
     1 CALLS TO GCG PACKAGE FOR TRANSPORT TIME STEP 214 IN FLOW TIME STEP   1 STRESS PERIOD   2
     2 TOTAL ITERATIONS
     1 CALLS TO GCG PACKAGE FOR TRANSPORT TIME STEP 215 IN FLOW TIME STEP   1 STRESS PERIOD   2
     2 TOTAL ITERATIONS
     1 CALLS TO GCG PACKAGE FOR TRANSPORT TIME STEP 216 IN FLOW TIME STEP   1 STRESS PERIOD   2
     2 TOTAL ITERATIONS
     1 CALLS TO GCG PACKAGE FOR TRANSPORT TIME STEP 217 IN FLOW TIME STEP   1 STRESS PERIOD   2
     2 TOTAL ITERATIONS
     1 CALLS TO GCG PACKAGE FOR TRANSPORT TIME STEP 218 IN FLOW TIME STEP   1 STRESS PERIOD   2
     2 TOTAL ITERATIONS
     1 CALLS TO GCG PACKAGE FOR TRANSPORT TIME STEP 219 IN FLOW TIME STEP   1 STRESS PERIOD   2
     2 TOTAL ITERATIONS
     1 CALLS TO GCG PACKAGE FOR TRANSPORT TIME STEP 220 IN FLOW TIME STEP   1 STRESS PERIOD   2
     2 TOTAL ITERATIONS
     1 CALLS TO GCG PACKAGE FOR TRANSPORT TIME STEP 221 IN FLOW TIME STEP   1 STRESS PERIOD   2
     2 TOTAL ITERATIONS
     1 CALLS TO GCG PACKAGE FOR TRANSPORT TIME STEP 222 IN FLOW TIME STEP   1 STRESS PERIOD   2
     2 TOTAL ITERATIONS
     1 CALLS TO GCG PACKAGE FOR TRANSPORT TIME STEP 223 IN FLOW TIME STEP   1 STRESS PERIOD   2
     2 TOTAL ITERATIONS
     1 CALLS TO GCG PACKAGE FOR TRANSPORT TIME STEP 224 IN FLOW TIME STEP   1 STRESS PERIOD   2
     2 TOTAL ITERATIONS
     1 CALLS TO GCG PACKAGE FOR TRANSPORT TIME STEP 225 IN FLOW TIME STEP   1 STRESS PERIOD   2
     2 TOTAL ITERATIONS
     1 CALLS TO GCG PACKAGE FOR TRANSPORT TIME STEP 226 IN FLOW TIME STEP   1 STRESS PERIOD   2
     2 TOTAL ITERATIONS
     1 CALLS TO GCG PACKAGE FOR TRANSPORT TIME STEP 227 IN FLOW TIME STEP   1 STRESS PERIOD   2
     2 TOTAL ITERATIONS
     1 CALLS TO GCG PACKAGE FOR TRANSPORT TIME STEP 228 IN FLOW TIME STEP   1 STRESS PERIOD   2
     2 TOTAL ITERATIONS
     1 CALLS TO GCG PACKAGE FOR TRANSPORT TIME STEP 229 IN FLOW TIME STEP   1 STRESS PERIOD   2
     2 TOTAL ITERATIONS
     1 CALLS TO GCG PACKAGE FOR TRANSPORT TIME STEP 230 IN FLOW TIME STEP   1 STRESS PERIOD   2
     2 TOTAL ITERATIONS
     1 CALLS TO GCG PACKAGE FOR TRANSPORT TIME STEP 231 IN FLOW TIME STEP   1 STRESS PERIOD   2
     2 TOTAL ITERATIONS
     1 CALLS TO GCG PACKAGE FOR TRANSPORT TIME STEP 232 IN FLOW TIME STEP   1 STRESS PERIOD   2
     2 TOTAL ITERATIONS
     1 CALLS TO GCG PACKAGE FOR TRANSPORT TIME STEP 233 IN FLOW TIME STEP   1 STRESS PERIOD   2
     2 TOTAL ITERATIONS
     1 CALLS TO GCG PACKAGE FOR TRANSPORT TIME STEP 234 IN FLOW TIME STEP   1 STRESS PERIOD   2
     2 TOTAL ITERATIONS
     1 CALLS TO GCG PACKAGE FOR TRANSPORT TIME STEP 235 IN FLOW TIME STEP   1 STRESS PERIOD   2
     2 TOTAL ITERATIONS
     1 CALLS TO GCG PACKAGE FOR TRANSPORT TIME STEP 236 IN FLOW TIME STEP   1 STRESS PERIOD   2
     2 TOTAL ITERATIONS
     1 CALLS TO GCG PACKAGE FOR TRANSPORT TIME STEP 237 IN FLOW TIME STEP   1 STRESS PERIOD   2
     2 TOTAL ITERATIONS
     1 CALLS TO GCG PACKAGE FOR TRANSPORT TIME STEP 238 IN FLOW TIME STEP   1 STRESS PERIOD   2
     2 TOTAL ITERATIONS
     1 CALLS TO GCG PACKAGE FOR TRANSPORT TIME STEP 239 IN FLOW TIME STEP   1 STRESS PERIOD   2
     2 TOTAL ITERATIONS
     1 CALLS TO GCG PACKAGE FOR TRANSPORT TIME STEP 240 IN FLOW TIME STEP   1 STRESS PERIOD   2
     2 TOTAL ITERATIONS
     1 CALLS TO GCG PACKAGE FOR TRANSPORT TIME STEP 241 IN FLOW TIME STEP   1 STRESS PERIOD   2
     2 TOTAL ITERATIONS
     1 CALLS TO GCG PACKAGE FOR TRANSPORT TIME STEP 242 IN FLOW TIME STEP   1 STRESS PERIOD   2
     2 TOTAL ITERATIONS
     1 CALLS TO GCG PACKAGE FOR TRANSPORT TIME STEP 243 IN FLOW TIME STEP   1 STRESS PERIOD   2
     2 TOTAL ITERATIONS
     1 CALLS TO GCG PACKAGE FOR TRANSPORT TIME STEP 244 IN FLOW TIME STEP   1 STRESS PERIOD   2
     2 TOTAL ITERATIONS
     1 CALLS TO GCG PACKAGE FOR TRANSPORT TIME STEP 245 IN FLOW TIME STEP   1 STRESS PERIOD   2
     2 TOTAL ITERATIONS
     1 CALLS TO GCG PACKAGE FOR TRANSPORT TIME STEP 246 IN FLOW TIME STEP   1 STRESS PERIOD   2
     2 TOTAL ITERATIONS
     1 CALLS TO GCG PACKAGE FOR TRANSPORT TIME STEP 247 IN FLOW TIME STEP   1 STRESS PERIOD   2
     2 TOTAL ITERATIONS
     1 CALLS TO GCG PACKAGE FOR TRANSPORT TIME STEP 248 IN FLOW TIME STEP   1 STRESS PERIOD   2
     2 TOTAL ITERATIONS
     1 CALLS TO GCG PACKAGE FOR TRANSPORT TIME STEP 249 IN FLOW TIME STEP   1 STRESS PERIOD   2
     2 TOTAL ITERATIONS
     1 CALLS TO GCG PACKAGE FOR TRANSPORT TIME STEP 250 IN FLOW TIME STEP   1 STRESS PERIOD   2
     2 TOTAL ITERATIONS
     1 CALLS TO GCG PACKAGE FOR TRANSPORT TIME STEP 251 IN FLOW TIME STEP   1 STRESS PERIOD   2
     2 TOTAL ITERATIONS
     1 CALLS TO GCG PACKAGE FOR TRANSPORT TIME STEP 252 IN FLOW TIME STEP   1 STRESS PERIOD   2
     2 TOTAL ITERATIONS
     1 CALLS TO GCG PACKAGE FOR TRANSPORT TIME STEP 253 IN FLOW TIME STEP   1 STRESS PERIOD   2
     2 TOTAL ITERATIONS
     1 CALLS TO GCG PACKAGE FOR TRANSPORT TIME STEP 254 IN FLOW TIME STEP   1 STRESS PERIOD   2
     2 TOTAL ITERATIONS
     1 CALLS TO GCG PACKAGE FOR TRANSPORT TIME STEP 255 IN FLOW TIME STEP   1 STRESS PERIOD   2
     2 TOTAL ITERATIONS
     1 CALLS TO GCG PACKAGE FOR TRANSPORT TIME STEP 256 IN FLOW TIME STEP   1 STRESS PERIOD   2
     2 TOTAL ITERATIONS
     1 CALLS TO GCG PACKAGE FOR TRANSPORT TIME STEP 257 IN FLOW TIME STEP   1 STRESS PERIOD   2
     2 TOTAL ITERATIONS
     1 CALLS TO GCG PACKAGE FOR TRANSPORT TIME STEP 258 IN FLOW TIME STEP   1 STRESS PERIOD   2
     2 TOTAL ITERATIONS
     1 CALLS TO GCG PACKAGE FOR TRANSPORT TIME STEP 259 IN FLOW TIME STEP   1 STRESS PERIOD   2
     2 TOTAL ITERATIONS
     1 CALLS TO GCG PACKAGE FOR TRANSPORT TIME STEP 260 IN FLOW TIME STEP   1 STRESS PERIOD   2
     2 TOTAL ITERATIONS
     1 CALLS TO GCG PACKAGE FOR TRANSPORT TIME STEP 261 IN FLOW TIME STEP   1 STRESS PERIOD   2
     2 TOTAL ITERATIONS
     1 CALLS TO GCG PACKAGE FOR TRANSPORT TIME STEP 262 IN FLOW TIME STEP   1 STRESS PERIOD   2
     2 TOTAL ITERATIONS
     1 CALLS TO GCG PACKAGE FOR TRANSPORT TIME STEP 263 IN FLOW TIME STEP   1 STRESS PERIOD   2
     2 TOTAL ITERATIONS
     1 CALLS TO GCG PACKAGE FOR TRANSPORT TIME STEP 264 IN FLOW TIME STEP   1 STRESS PERIOD   2
     2 TOTAL ITERATIONS
     1 CALLS TO GCG PACKAGE FOR TRANSPORT TIME STEP 265 IN FLOW TIME STEP   1 STRESS PERIOD   2
     2 TOTAL ITERATIONS
     1 CALLS TO GCG PACKAGE FOR TRANSPORT TIME STEP 266 IN FLOW TIME STEP   1 STRESS PERIOD   2
     2 TOTAL ITERATIONS
     1 CALLS TO GCG PACKAGE FOR TRANSPORT TIME STEP 267 IN FLOW TIME STEP   1 STRESS PERIOD   2
     2 TOTAL ITERATIONS
     1 CALLS TO GCG PACKAGE FOR TRANSPORT TIME STEP 268 IN FLOW TIME STEP   1 STRESS PERIOD   2
     2 TOTAL ITERATIONS
     1 CALLS TO GCG PACKAGE FOR TRANSPORT TIME STEP 269 IN FLOW TIME STEP   1 STRESS PERIOD   2
     2 TOTAL ITERATIONS
     1 CALLS TO GCG PACKAGE FOR TRANSPORT TIME STEP 270 IN FLOW TIME STEP   1 STRESS PERIOD   2
     2 TOTAL ITERATIONS
     1 CALLS TO GCG PACKAGE FOR TRANSPORT TIME STEP 271 IN FLOW TIME STEP   1 STRESS PERIOD   2
     2 TOTAL ITERATIONS
     1 CALLS TO GCG PACKAGE FOR TRANSPORT TIME STEP 272 IN FLOW TIME STEP   1 STRESS PERIOD   2
     2 TOTAL ITERATIONS
     1 CALLS TO GCG PACKAGE FOR TRANSPORT TIME STEP 273 IN FLOW TIME STEP   1 STRESS PERIOD   2
     2 TOTAL ITERATIONS
     1 CALLS TO GCG PACKAGE FOR TRANSPORT TIME STEP 274 IN FLOW TIME STEP   1 STRESS PERIOD   2
     2 TOTAL ITERATIONS
     1 CALLS TO GCG PACKAGE FOR TRANSPORT TIME STEP 275 IN FLOW TIME STEP   1 STRESS PERIOD   2
     2 TOTAL ITERATIONS
     1 CALLS TO GCG PACKAGE FOR TRANSPORT TIME STEP 276 IN FLOW TIME STEP   1 STRESS PERIOD   2
     2 TOTAL ITERATIONS
     1 CALLS TO GCG PACKAGE FOR TRANSPORT TIME STEP 277 IN FLOW TIME STEP   1 STRESS PERIOD   2
     2 TOTAL ITERATIONS
     1 CALLS TO GCG PACKAGE FOR TRANSPORT TIME STEP 278 IN FLOW TIME STEP   1 STRESS PERIOD   2
     2 TOTAL ITERATIONS
     1 CALLS TO GCG PACKAGE FOR TRANSPORT TIME STEP 279 IN FLOW TIME STEP   1 STRESS PERIOD   2
     2 TOTAL ITERATIONS
     1 CALLS TO GCG PACKAGE FOR TRANSPORT TIME STEP 280 IN FLOW TIME STEP   1 STRESS PERIOD   2
     2 TOTAL ITERATIONS
     1 CALLS TO GCG PACKAGE FOR TRANSPORT TIME STEP 281 IN FLOW TIME STEP   1 STRESS PERIOD   2
     2 TOTAL ITERATIONS
     1 CALLS TO GCG PACKAGE FOR TRANSPORT TIME STEP 282 IN FLOW TIME STEP   1 STRESS PERIOD   2
     2 TOTAL ITERATIONS
     1 CALLS TO GCG PACKAGE FOR TRANSPORT TIME STEP 283 IN FLOW TIME STEP   1 STRESS PERIOD   2
     2 TOTAL ITERATIONS
     1 CALLS TO GCG PACKAGE FOR TRANSPORT TIME STEP 284 IN FLOW TIME STEP   1 STRESS PERIOD   2
     2 TOTAL ITERATIONS
     1 CALLS TO GCG PACKAGE FOR TRANSPORT TIME STEP 285 IN FLOW TIME STEP   1 STRESS PERIOD   2
     2 TOTAL ITERATIONS
     1 CALLS TO GCG PACKAGE FOR TRANSPORT TIME STEP 286 IN FLOW TIME STEP   1 STRESS PERIOD   2
     2 TOTAL ITERATIONS
     1 CALLS TO GCG PACKAGE FOR TRANSPORT TIME STEP 287 IN FLOW TIME STEP   1 STRESS PERIOD   2
     2 TOTAL ITERATIONS
     1 CALLS TO GCG PACKAGE FOR TRANSPORT TIME STEP 288 IN FLOW TIME STEP   1 STRESS PERIOD   2
     2 TOTAL ITERATIONS
     1 CALLS TO GCG PACKAGE FOR TRANSPORT TIME STEP 289 IN FLOW TIME STEP   1 STRESS PERIOD   2
     2 TOTAL ITERATIONS
     1 CALLS TO GCG PACKAGE FOR TRANSPORT TIME STEP 290 IN FLOW TIME STEP   1 STRESS PERIOD   2
     2 TOTAL ITERATIONS
     1 CALLS TO GCG PACKAGE FOR TRANSPORT TIME STEP 291 IN FLOW TIME STEP   1 STRESS PERIOD   2
     2 TOTAL ITERATIONS
     1 CALLS TO GCG PACKAGE FOR TRANSPORT TIME STEP 292 IN FLOW TIME STEP   1 STRESS PERIOD   2
     2 TOTAL ITERATIONS
     1 CALLS TO GCG PACKAGE FOR TRANSPORT TIME STEP 293 IN FLOW TIME STEP   1 STRESS PERIOD   2
     2 TOTAL ITERATIONS
     1 CALLS TO GCG PACKAGE FOR TRANSPORT TIME STEP 294 IN FLOW TIME STEP   1 STRESS PERIOD   2
     2 TOTAL ITERATIONS
     1 CALLS TO GCG PACKAGE FOR TRANSPORT TIME STEP 295 IN FLOW TIME STEP   1 STRESS PERIOD   2
     2 TOTAL ITERATIONS
     1 CALLS TO GCG PACKAGE FOR TRANSPORT TIME STEP 296 IN FLOW TIME STEP   1 STRESS PERIOD   2
     2 TOTAL ITERATIONS
     1 CALLS TO GCG PACKAGE FOR TRANSPORT TIME STEP 297 IN FLOW TIME STEP   1 STRESS PERIOD   2
     2 TOTAL ITERATIONS
     1 CALLS TO GCG PACKAGE FOR TRANSPORT TIME STEP 298 IN FLOW TIME STEP   1 STRESS PERIOD   2
     2 TOTAL ITERATIONS
     1 CALLS TO GCG PACKAGE FOR TRANSPORT TIME STEP 299 IN FLOW TIME STEP   1 STRESS PERIOD   2
     2 TOTAL ITERATIONS
     1 CALLS TO GCG PACKAGE FOR TRANSPORT TIME STEP 300 IN FLOW TIME STEP   1 STRESS PERIOD   2
     2 TOTAL ITERATIONS
     1 CALLS TO GCG PACKAGE FOR TRANSPORT TIME STEP 301 IN FLOW TIME STEP   1 STRESS PERIOD   2
     2 TOTAL ITERATIONS
     1 CALLS TO GCG PACKAGE FOR TRANSPORT TIME STEP 302 IN FLOW TIME STEP   1 STRESS PERIOD   2
     2 TOTAL ITERATIONS
     1 CALLS TO GCG PACKAGE FOR TRANSPORT TIME STEP 303 IN FLOW TIME STEP   1 STRESS PERIOD   2
     2 TOTAL ITERATIONS
     1 CALLS TO GCG PACKAGE FOR TRANSPORT TIME STEP 304 IN FLOW TIME STEP   1 STRESS PERIOD   2
     2 TOTAL ITERATIONS
     1 CALLS TO GCG PACKAGE FOR TRANSPORT TIME STEP 305 IN FLOW TIME STEP   1 STRESS PERIOD   2
     2 TOTAL ITERATIONS
     1 CALLS TO GCG PACKAGE FOR TRANSPORT TIME STEP 306 IN FLOW TIME STEP   1 STRESS PERIOD   2
     2 TOTAL ITERATIONS
     1 CALLS TO GCG PACKAGE FOR TRANSPORT TIME STEP 307 IN FLOW TIME STEP   1 STRESS PERIOD   2
     2 TOTAL ITERATIONS
     1 CALLS TO GCG PACKAGE FOR TRANSPORT TIME STEP 308 IN FLOW TIME STEP   1 STRESS PERIOD   2
     2 TOTAL ITERATIONS
     1 CALLS TO GCG PACKAGE FOR TRANSPORT TIME STEP 309 IN FLOW TIME STEP   1 STRESS PERIOD   2
     2 TOTAL ITERATIONS
     1 CALLS TO GCG PACKAGE FOR TRANSPORT TIME STEP 310 IN FLOW TIME STEP   1 STRESS PERIOD   2
     2 TOTAL ITERATIONS
     1 CALLS TO GCG PACKAGE FOR TRANSPORT TIME STEP 311 IN FLOW TIME STEP   1 STRESS PERIOD   2
     2 TOTAL ITERATIONS
     1 CALLS TO GCG PACKAGE FOR TRANSPORT TIME STEP 312 IN FLOW TIME STEP   1 STRESS PERIOD   2
     2 TOTAL ITERATIONS
     1 CALLS TO GCG PACKAGE FOR TRANSPORT TIME STEP 313 IN FLOW TIME STEP   1 STRESS PERIOD   2
     2 TOTAL ITERATIONS
     1 CALLS TO GCG PACKAGE FOR TRANSPORT TIME STEP 314 IN FLOW TIME STEP   1 STRESS PERIOD   2
     2 TOTAL ITERATIONS
     1 CALLS TO GCG PACKAGE FOR TRANSPORT TIME STEP 315 IN FLOW TIME STEP   1 STRESS PERIOD   2
     2 TOTAL ITERATIONS
     1 CALLS TO GCG PACKAGE FOR TRANSPORT TIME STEP 316 IN FLOW TIME STEP   1 STRESS PERIOD   2
     2 TOTAL ITERATIONS
     1 CALLS TO GCG PACKAGE FOR TRANSPORT TIME STEP 317 IN FLOW TIME STEP   1 STRESS PERIOD   2
     2 TOTAL ITERATIONS
     1 CALLS TO GCG PACKAGE FOR TRANSPORT TIME STEP 318 IN FLOW TIME STEP   1 STRESS PERIOD   2
     2 TOTAL ITERATIONS
     1 CALLS TO GCG PACKAGE FOR TRANSPORT TIME STEP 319 IN FLOW TIME STEP   1 STRESS PERIOD   2
     2 TOTAL ITERATIONS
     1 CALLS TO GCG PACKAGE FOR TRANSPORT TIME STEP 320 IN FLOW TIME STEP   1 STRESS PERIOD   2
     2 TOTAL ITERATIONS
     1 CALLS TO GCG PACKAGE FOR TRANSPORT TIME STEP 321 IN FLOW TIME STEP   1 STRESS PERIOD   2
     2 TOTAL ITERATIONS
     1 CALLS TO GCG PACKAGE FOR TRANSPORT TIME STEP 322 IN FLOW TIME STEP   1 STRESS PERIOD   2
     2 TOTAL ITERATIONS
     1 CALLS TO GCG PACKAGE FOR TRANSPORT TIME STEP 323 IN FLOW TIME STEP   1 STRESS PERIOD   2
     2 TOTAL ITERATIONS
     1 CALLS TO GCG PACKAGE FOR TRANSPORT TIME STEP 324 IN FLOW TIME STEP   1 STRESS PERIOD   2
     2 TOTAL ITERATIONS
     1 CALLS TO GCG PACKAGE FOR TRANSPORT TIME STEP 325 IN FLOW TIME STEP   1 STRESS PERIOD   2
     2 TOTAL ITERATIONS
     1 CALLS TO GCG PACKAGE FOR TRANSPORT TIME STEP 326 IN FLOW TIME STEP   1 STRESS PERIOD   2
     2 TOTAL ITERATIONS
     1 CALLS TO GCG PACKAGE FOR TRANSPORT TIME STEP 327 IN FLOW TIME STEP   1 STRESS PERIOD   2
     2 TOTAL ITERATIONS
     1 CALLS TO GCG PACKAGE FOR TRANSPORT TIME STEP 328 IN FLOW TIME STEP   1 STRESS PERIOD   2
     2 TOTAL ITERATIONS
     1 CALLS TO GCG PACKAGE FOR TRANSPORT TIME STEP 329 IN FLOW TIME STEP   1 STRESS PERIOD   2
     2 TOTAL ITERATIONS
     1 CALLS TO GCG PACKAGE FOR TRANSPORT TIME STEP 330 IN FLOW TIME STEP   1 STRESS PERIOD   2
     2 TOTAL ITERATIONS
     1 CALLS TO GCG PACKAGE FOR TRANSPORT TIME STEP 331 IN FLOW TIME STEP   1 STRESS PERIOD   2
     2 TOTAL ITERATIONS
     1 CALLS TO GCG PACKAGE FOR TRANSPORT TIME STEP 332 IN FLOW TIME STEP   1 STRESS PERIOD   2
     2 TOTAL ITERATIONS
     1 CALLS TO GCG PACKAGE FOR TRANSPORT TIME STEP 333 IN FLOW TIME STEP   1 STRESS PERIOD   2
     2 TOTAL ITERATIONS
     1 CALLS TO GCG PACKAGE FOR TRANSPORT TIME STEP 334 IN FLOW TIME STEP   1 STRESS PERIOD   2
     2 TOTAL ITERATIONS
     1 CALLS TO GCG PACKAGE FOR TRANSPORT TIME STEP 335 IN FLOW TIME STEP   1 STRESS PERIOD   2
     2 TOTAL ITERATIONS
     1 CALLS TO GCG PACKAGE FOR TRANSPORT TIME STEP 336 IN FLOW TIME STEP   1 STRESS PERIOD   2
     2 TOTAL ITERATIONS
     1 CALLS TO GCG PACKAGE FOR TRANSPORT TIME STEP 337 IN FLOW TIME STEP   1 STRESS PERIOD   2
     2 TOTAL ITERATIONS
     1 CALLS TO GCG PACKAGE FOR TRANSPORT TIME STEP 338 IN FLOW TIME STEP   1 STRESS PERIOD   2
     2 TOTAL ITERATIONS
     1 CALLS TO GCG PACKAGE FOR TRANSPORT TIME STEP 339 IN FLOW TIME STEP   1 STRESS PERIOD   2
     2 TOTAL ITERATIONS
     1 CALLS TO GCG PACKAGE FOR TRANSPORT TIME STEP 340 IN FLOW TIME STEP   1 STRESS PERIOD   2
     2 TOTAL ITERATIONS
     1 CALLS TO GCG PACKAGE FOR TRANSPORT TIME STEP 341 IN FLOW TIME STEP   1 STRESS PERIOD   2
     2 TOTAL ITERATIONS
     1 CALLS TO GCG PACKAGE FOR TRANSPORT TIME STEP 342 IN FLOW TIME STEP   1 STRESS PERIOD   2
     2 TOTAL ITERATIONS
     1 CALLS TO GCG PACKAGE FOR TRANSPORT TIME STEP 343 IN FLOW TIME STEP   1 STRESS PERIOD   2
     2 TOTAL ITERATIONS
     1 CALLS TO GCG PACKAGE FOR TRANSPORT TIME STEP 344 IN FLOW TIME STEP   1 STRESS PERIOD   2
     2 TOTAL ITERATIONS
     1 CALLS TO GCG PACKAGE FOR TRANSPORT TIME STEP 345 IN FLOW TIME STEP   1 STRESS PERIOD   2
     2 TOTAL ITERATIONS
     1 CALLS TO GCG PACKAGE FOR TRANSPORT TIME STEP 346 IN FLOW TIME STEP   1 STRESS PERIOD   2
     2 TOTAL ITERATIONS
     1 CALLS TO GCG PACKAGE FOR TRANSPORT TIME STEP 347 IN FLOW TIME STEP   1 STRESS PERIOD   2
     2 TOTAL ITERATIONS
     1 CALLS TO GCG PACKAGE FOR TRANSPORT TIME STEP 348 IN FLOW TIME STEP   1 STRESS PERIOD   2
     2 TOTAL ITERATIONS
     1 CALLS TO GCG PACKAGE FOR TRANSPORT TIME STEP 349 IN FLOW TIME STEP   1 STRESS PERIOD   2
     2 TOTAL ITERATIONS
[...]
     2 TOTAL ITERATIONS
     1 CALLS TO GCG PACKAGE FOR TRANSPORT TIME STEP1504 IN FLOW TIME STEP   1 STRESS PERIOD   2
     2 TOTAL ITERATIONS
     1 CALLS TO GCG PACKAGE FOR TRANSPORT TIME STEP1505 IN FLOW TIME STEP   1 STRESS PERIOD   2
     2 TOTAL ITERATIONS
     1 CALLS TO GCG PACKAGE FOR TRANSPORT TIME STEP1506 IN FLOW TIME STEP   1 STRESS PERIOD   2
     2 TOTAL ITERATIONS
     1 CALLS TO GCG PACKAGE FOR TRANSPORT TIME STEP1507 IN FLOW TIME STEP   1 STRESS PERIOD   2
     2 TOTAL ITERATIONS
     1 CALLS TO GCG PACKAGE FOR TRANSPORT TIME STEP1508 IN FLOW TIME STEP   1 STRESS PERIOD   2
     2 TOTAL ITERATIONS
     1 CALLS TO GCG PACKAGE FOR TRANSPORT TIME STEP1509 IN FLOW TIME STEP   1 STRESS PERIOD   2
     2 TOTAL ITERATIONS
     1 CALLS TO GCG PACKAGE FOR TRANSPORT TIME STEP1510 IN FLOW TIME STEP   1 STRESS PERIOD   2
     2 TOTAL ITERATIONS
     1 CALLS TO GCG PACKAGE FOR TRANSPORT TIME STEP1511 IN FLOW TIME STEP   1 STRESS PERIOD   2
     2 TOTAL ITERATIONS
     1 CALLS TO GCG PACKAGE FOR TRANSPORT TIME STEP1512 IN FLOW TIME STEP   1 STRESS PERIOD   2
     2 TOTAL ITERATIONS
     1 CALLS TO GCG PACKAGE FOR TRANSPORT TIME STEP1513 IN FLOW TIME STEP   1 STRESS PERIOD   2
     2 TOTAL ITERATIONS
     1 CALLS TO GCG PACKAGE FOR TRANSPORT TIME STEP1514 IN FLOW TIME STEP   1 STRESS PERIOD   2
     2 TOTAL ITERATIONS
     1 CALLS TO GCG PACKAGE FOR TRANSPORT TIME STEP1515 IN FLOW TIME STEP   1 STRESS PERIOD   2
     2 TOTAL ITERATIONS
     1 CALLS TO GCG PACKAGE FOR TRANSPORT TIME STEP1516 IN FLOW TIME STEP   1 STRESS PERIOD   2
     2 TOTAL ITERATIONS
     1 CALLS TO GCG PACKAGE FOR TRANSPORT TIME STEP1517 IN FLOW TIME STEP   1 STRESS PERIOD   2
     2 TOTAL ITERATIONS
     1 CALLS TO GCG PACKAGE FOR TRANSPORT TIME STEP1518 IN FLOW TIME STEP   1 STRESS PERIOD   2
     2 TOTAL ITERATIONS
     1 CALLS TO GCG PACKAGE FOR TRANSPORT TIME STEP1519 IN FLOW TIME STEP   1 STRESS PERIOD   2
     2 TOTAL ITERATIONS
     1 CALLS TO GCG PACKAGE FOR TRANSPORT TIME STEP1520 IN FLOW TIME STEP   1 STRESS PERIOD   2
     2 TOTAL ITERATIONS
     1 CALLS TO GCG PACKAGE FOR TRANSPORT TIME STEP1521 IN FLOW TIME STEP   1 STRESS PERIOD   2
     2 TOTAL ITERATIONS
     1 CALLS TO GCG PACKAGE FOR TRANSPORT TIME STEP1522 IN FLOW TIME STEP   1 STRESS PERIOD   2
     2 TOTAL ITERATIONS
     1 CALLS TO GCG PACKAGE FOR TRANSPORT TIME STEP1523 IN FLOW TIME STEP   1 STRESS PERIOD   2
     2 TOTAL ITERATIONS
     1 CALLS TO GCG PACKAGE FOR TRANSPORT TIME STEP1524 IN FLOW TIME STEP   1 STRESS PERIOD   2
     2 TOTAL ITERATIONS
     1 CALLS TO GCG PACKAGE FOR TRANSPORT TIME STEP1525 IN FLOW TIME STEP   1 STRESS PERIOD   2
     2 TOTAL ITERATIONS
     1 CALLS TO GCG PACKAGE FOR TRANSPORT TIME STEP1526 IN FLOW TIME STEP   1 STRESS PERIOD   2
     2 TOTAL ITERATIONS
     1 CALLS TO GCG PACKAGE FOR TRANSPORT TIME STEP1527 IN FLOW TIME STEP   1 STRESS PERIOD   2
     2 TOTAL ITERATIONS
     1 CALLS TO GCG PACKAGE FOR TRANSPORT TIME STEP1528 IN FLOW TIME STEP   1 STRESS PERIOD   2
     2 TOTAL ITERATIONS
     1 CALLS TO GCG PACKAGE FOR TRANSPORT TIME STEP1529 IN FLOW TIME STEP   1 STRESS PERIOD   2
     2 TOTAL ITERATIONS
     1 CALLS TO GCG PACKAGE FOR TRANSPORT TIME STEP1530 IN FLOW TIME STEP   1 STRESS PERIOD   2
     2 TOTAL ITERATIONS
     1 CALLS TO GCG PACKAGE FOR TRANSPORT TIME STEP1531 IN FLOW TIME STEP   1 STRESS PERIOD   2
     2 TOTAL ITERATIONS
     1 CALLS TO GCG PACKAGE FOR TRANSPORT TIME STEP1532 IN FLOW TIME STEP   1 STRESS PERIOD   2
     2 TOTAL ITERATIONS
     1 CALLS TO GCG PACKAGE FOR TRANSPORT TIME STEP1533 IN FLOW TIME STEP   1 STRESS PERIOD   2
     2 TOTAL ITERATIONS
     1 CALLS TO GCG PACKAGE FOR TRANSPORT TIME STEP1534 IN FLOW TIME STEP   1 STRESS PERIOD   2
     2 TOTAL ITERATIONS
     1 CALLS TO GCG PACKAGE FOR TRANSPORT TIME STEP1535 IN FLOW TIME STEP   1 STRESS PERIOD   2
     2 TOTAL ITERATIONS
     1 CALLS TO GCG PACKAGE FOR TRANSPORT TIME STEP1536 IN FLOW TIME STEP   1 STRESS PERIOD   2
     2 TOTAL ITERATIONS
     1 CALLS TO GCG PACKAGE FOR TRANSPORT TIME STEP1537 IN FLOW TIME STEP   1 STRESS PERIOD   2
     2 TOTAL ITERATIONS
     1 CALLS TO GCG PACKAGE FOR TRANSPORT TIME STEP1538 IN FLOW TIME STEP   1 STRESS PERIOD   2
     2 TOTAL ITERATIONS
     1 CALLS TO GCG PACKAGE FOR TRANSPORT TIME STEP1539 IN FLOW TIME STEP   1 STRESS PERIOD   2
     2 TOTAL ITERATIONS
     1 CALLS TO GCG PACKAGE FOR TRANSPORT TIME STEP1540 IN FLOW TIME STEP   1 STRESS PERIOD   2
     2 TOTAL ITERATIONS
     1 CALLS TO GCG PACKAGE FOR TRANSPORT TIME STEP1541 IN FLOW TIME STEP   1 STRESS PERIOD   2
     2 TOTAL ITERATIONS
     1 CALLS TO GCG PACKAGE FOR TRANSPORT TIME STEP1542 IN FLOW TIME STEP   1 STRESS PERIOD   2
     2 TOTAL ITERATIONS
     1 CALLS TO GCG PACKAGE FOR TRANSPORT TIME STEP1543 IN FLOW TIME STEP   1 STRESS PERIOD   2
     2 TOTAL ITERATIONS
     1 CALLS TO GCG PACKAGE FOR TRANSPORT TIME STEP1544 IN FLOW TIME STEP   1 STRESS PERIOD   2
     2 TOTAL ITERATIONS
     1 CALLS TO GCG PACKAGE FOR TRANSPORT TIME STEP1545 IN FLOW TIME STEP   1 STRESS PERIOD   2
     2 TOTAL ITERATIONS
     1 CALLS TO GCG PACKAGE FOR TRANSPORT TIME STEP1546 IN FLOW TIME STEP   1 STRESS PERIOD   2
     2 TOTAL ITERATIONS
     1 CALLS TO GCG PACKAGE FOR TRANSPORT TIME STEP1547 IN FLOW TIME STEP   1 STRESS PERIOD   2
     2 TOTAL ITERATIONS
     1 CALLS TO GCG PACKAGE FOR TRANSPORT TIME STEP1548 IN FLOW TIME STEP   1 STRESS PERIOD   2
     2 TOTAL ITERATIONS
     1 CALLS TO GCG PACKAGE FOR TRANSPORT TIME STEP1549 IN FLOW TIME STEP   1 STRESS PERIOD   2
     2 TOTAL ITERATIONS
     1 CALLS TO GCG PACKAGE FOR TRANSPORT TIME STEP1550 IN FLOW TIME STEP   1 STRESS PERIOD   2
     2 TOTAL ITERATIONS
     1 CALLS TO GCG PACKAGE FOR TRANSPORT TIME STEP1551 IN FLOW TIME STEP   1 STRESS PERIOD   2
     2 TOTAL ITERATIONS
     1 CALLS TO GCG PACKAGE FOR TRANSPORT TIME STEP1552 IN FLOW TIME STEP   1 STRESS PERIOD   2
     2 TOTAL ITERATIONS
     1 CALLS TO GCG PACKAGE FOR TRANSPORT TIME STEP1553 IN FLOW TIME STEP   1 STRESS PERIOD   2
     2 TOTAL ITERATIONS
     1 CALLS TO GCG PACKAGE FOR TRANSPORT TIME STEP1554 IN FLOW TIME STEP   1 STRESS PERIOD   2
     2 TOTAL ITERATIONS
     1 CALLS TO GCG PACKAGE FOR TRANSPORT TIME STEP1555 IN FLOW TIME STEP   1 STRESS PERIOD   2
     2 TOTAL ITERATIONS
     1 CALLS TO GCG PACKAGE FOR TRANSPORT TIME STEP1556 IN FLOW TIME STEP   1 STRESS PERIOD   2
     2 TOTAL ITERATIONS
     1 CALLS TO GCG PACKAGE FOR TRANSPORT TIME STEP1557 IN FLOW TIME STEP   1 STRESS PERIOD   2
     2 TOTAL ITERATIONS
     1 CALLS TO GCG PACKAGE FOR TRANSPORT TIME STEP1558 IN FLOW TIME STEP   1 STRESS PERIOD   2
     2 TOTAL ITERATIONS
     1 CALLS TO GCG PACKAGE FOR TRANSPORT TIME STEP1559 IN FLOW TIME STEP   1 STRESS PERIOD   2
     2 TOTAL ITERATIONS
     1 CALLS TO GCG PACKAGE FOR TRANSPORT TIME STEP1560 IN FLOW TIME STEP   1 STRESS PERIOD   2
     2 TOTAL ITERATIONS
     1 CALLS TO GCG PACKAGE FOR TRANSPORT TIME STEP1561 IN FLOW TIME STEP   1 STRESS PERIOD   2
     2 TOTAL ITERATIONS
     1 CALLS TO GCG PACKAGE FOR TRANSPORT TIME STEP1562 IN FLOW TIME STEP   1 STRESS PERIOD   2
     2 TOTAL ITERATIONS
     1 CALLS TO GCG PACKAGE FOR TRANSPORT TIME STEP1563 IN FLOW TIME STEP   1 STRESS PERIOD   2
     2 TOTAL ITERATIONS
     1 CALLS TO GCG PACKAGE FOR TRANSPORT TIME STEP1564 IN FLOW TIME STEP   1 STRESS PERIOD   2
     2 TOTAL ITERATIONS
     1 CALLS TO GCG PACKAGE FOR TRANSPORT TIME STEP1565 IN FLOW TIME STEP   1 STRESS PERIOD   2
     2 TOTAL ITERATIONS
     1 CALLS TO GCG PACKAGE FOR TRANSPORT TIME STEP1566 IN FLOW TIME STEP   1 STRESS PERIOD   2
     2 TOTAL ITERATIONS
     1 CALLS TO GCG PACKAGE FOR TRANSPORT TIME STEP1567 IN FLOW TIME STEP   1 STRESS PERIOD   2
     2 TOTAL ITERATIONS
     1 CALLS TO GCG PACKAGE FOR TRANSPORT TIME STEP1568 IN FLOW TIME STEP   1 STRESS PERIOD   2
     2 TOTAL ITERATIONS
     1 CALLS TO GCG PACKAGE FOR TRANSPORT TIME STEP1569 IN FLOW TIME STEP   1 STRESS PERIOD   2
     2 TOTAL ITERATIONS
     1 CALLS TO GCG PACKAGE FOR TRANSPORT TIME STEP1570 IN FLOW TIME STEP   1 STRESS PERIOD   2
     2 TOTAL ITERATIONS
     1 CALLS TO GCG PACKAGE FOR TRANSPORT TIME STEP1571 IN FLOW TIME STEP   1 STRESS PERIOD   2
     2 TOTAL ITERATIONS
     1 CALLS TO GCG PACKAGE FOR TRANSPORT TIME STEP1572 IN FLOW TIME STEP   1 STRESS PERIOD   2
     2 TOTAL ITERATIONS
     1 CALLS TO GCG PACKAGE FOR TRANSPORT TIME STEP1573 IN FLOW TIME STEP   1 STRESS PERIOD   2
     2 TOTAL ITERATIONS
     1 CALLS TO GCG PACKAGE FOR TRANSPORT TIME STEP1574 IN FLOW TIME STEP   1 STRESS PERIOD   2
     2 TOTAL ITERATIONS
     1 CALLS TO GCG PACKAGE FOR TRANSPORT TIME STEP1575 IN FLOW TIME STEP   1 STRESS PERIOD   2
     2 TOTAL ITERATIONS
     1 CALLS TO GCG PACKAGE FOR TRANSPORT TIME STEP1576 IN FLOW TIME STEP   1 STRESS PERIOD   2
     2 TOTAL ITERATIONS
     1 CALLS TO GCG PACKAGE FOR TRANSPORT TIME STEP1577 IN FLOW TIME STEP   1 STRESS PERIOD   2
     2 TOTAL ITERATIONS
     1 CALLS TO GCG PACKAGE FOR TRANSPORT TIME STEP1578 IN FLOW TIME STEP   1 STRESS PERIOD   2
     2 TOTAL ITERATIONS
     1 CALLS TO GCG PACKAGE FOR TRANSPORT TIME STEP1579 IN FLOW TIME STEP   1 STRESS PERIOD   2
     2 TOTAL ITERATIONS
     1 CALLS TO GCG PACKAGE FOR TRANSPORT TIME STEP1580 IN FLOW TIME STEP   1 STRESS PERIOD   2
     2 TOTAL ITERATIONS
     1 CALLS TO GCG PACKAGE FOR TRANSPORT TIME STEP1581 IN FLOW TIME STEP   1 STRESS PERIOD   2
     2 TOTAL ITERATIONS
     1 CALLS TO GCG PACKAGE FOR TRANSPORT TIME STEP1582 IN FLOW TIME STEP   1 STRESS PERIOD   2
     2 TOTAL ITERATIONS
     1 CALLS TO GCG PACKAGE FOR TRANSPORT TIME STEP1583 IN FLOW TIME STEP   1 STRESS PERIOD   2
     2 TOTAL ITERATIONS
     1 CALLS TO GCG PACKAGE FOR TRANSPORT TIME STEP1584 IN FLOW TIME STEP   1 STRESS PERIOD   2
     2 TOTAL ITERATIONS
     1 CALLS TO GCG PACKAGE FOR TRANSPORT TIME STEP1585 IN FLOW TIME STEP   1 STRESS PERIOD   2
     2 TOTAL ITERATIONS
     1 CALLS TO GCG PACKAGE FOR TRANSPORT TIME STEP1586 IN FLOW TIME STEP   1 STRESS PERIOD   2
     2 TOTAL ITERATIONS
     1 CALLS TO GCG PACKAGE FOR TRANSPORT TIME STEP1587 IN FLOW TIME STEP   1 STRESS PERIOD   2
     2 TOTAL ITERATIONS
     1 CALLS TO GCG PACKAGE FOR TRANSPORT TIME STEP1588 IN FLOW TIME STEP   1 STRESS PERIOD   2
     2 TOTAL ITERATIONS
     1 CALLS TO GCG PACKAGE FOR TRANSPORT TIME STEP1589 IN FLOW TIME STEP   1 STRESS PERIOD   2
     2 TOTAL ITERATIONS
     1 CALLS TO GCG PACKAGE FOR TRANSPORT TIME STEP1590 IN FLOW TIME STEP   1 STRESS PERIOD   2
     2 TOTAL ITERATIONS
     1 CALLS TO GCG PACKAGE FOR TRANSPORT TIME STEP1591 IN FLOW TIME STEP   1 STRESS PERIOD   2
     2 TOTAL ITERATIONS
     1 CALLS TO GCG PACKAGE FOR TRANSPORT TIME STEP1592 IN FLOW TIME STEP   1 STRESS PERIOD   2
     2 TOTAL ITERATIONS
     1 CALLS TO GCG PACKAGE FOR TRANSPORT TIME STEP1593 IN FLOW TIME STEP   1 STRESS PERIOD   2
     2 TOTAL ITERATIONS
     1 CALLS TO GCG PACKAGE FOR TRANSPORT TIME STEP1594 IN FLOW TIME STEP   1 STRESS PERIOD   2
     2 TOTAL ITERATIONS
     1 CALLS TO GCG PACKAGE FOR TRANSPORT TIME STEP1595 IN FLOW TIME STEP   1 STRESS PERIOD   2
     2 TOTAL ITERATIONS
     1 CALLS TO GCG PACKAGE FOR TRANSPORT TIME STEP1596 IN FLOW TIME STEP   1 STRESS PERIOD   2
     2 TOTAL ITERATIONS
     1 CALLS TO GCG PACKAGE FOR TRANSPORT TIME STEP1597 IN FLOW TIME STEP   1 STRESS PERIOD   2
     2 TOTAL ITERATIONS
     1 CALLS TO GCG PACKAGE FOR TRANSPORT TIME STEP1598 IN FLOW TIME STEP   1 STRESS PERIOD   2
     2 TOTAL ITERATIONS
     1 CALLS TO GCG PACKAGE FOR TRANSPORT TIME STEP1599 IN FLOW TIME STEP   1 STRESS PERIOD   2
     2 TOTAL ITERATIONS
     1 CALLS TO GCG PACKAGE FOR TRANSPORT TIME STEP1600 IN FLOW TIME STEP   1 STRESS PERIOD   2
     2 TOTAL ITERATIONS
     1 CALLS TO GCG PACKAGE FOR TRANSPORT TIME STEP1601 IN FLOW TIME STEP   1 STRESS PERIOD   2
     2 TOTAL ITERATIONS
     1 CALLS TO GCG PACKAGE FOR TRANSPORT TIME STEP1602 IN FLOW TIME STEP   1 STRESS PERIOD   2
     2 TOTAL ITERATIONS
     1 CALLS TO GCG PACKAGE FOR TRANSPORT TIME STEP1603 IN FLOW TIME STEP   1 STRESS PERIOD   2
     2 TOTAL ITERATIONS
     1 CALLS TO GCG PACKAGE FOR TRANSPORT TIME STEP1604 IN FLOW TIME STEP   1 STRESS PERIOD   2
     2 TOTAL ITERATIONS
     1 CALLS TO GCG PACKAGE FOR TRANSPORT TIME STEP1605 IN FLOW TIME STEP   1 STRESS PERIOD   2
     2 TOTAL ITERATIONS
     1 CALLS TO GCG PACKAGE FOR TRANSPORT TIME STEP1606 IN FLOW TIME STEP   1 STRESS PERIOD   2
     2 TOTAL ITERATIONS
     1 CALLS TO GCG PACKAGE FOR TRANSPORT TIME STEP1607 IN FLOW TIME STEP   1 STRESS PERIOD   2
     2 TOTAL ITERATIONS
     1 CALLS TO GCG PACKAGE FOR TRANSPORT TIME STEP1608 IN FLOW TIME STEP   1 STRESS PERIOD   2
     2 TOTAL ITERATIONS
     1 CALLS TO GCG PACKAGE FOR TRANSPORT TIME STEP1609 IN FLOW TIME STEP   1 STRESS PERIOD   2
     2 TOTAL ITERATIONS
     1 CALLS TO GCG PACKAGE FOR TRANSPORT TIME STEP1610 IN FLOW TIME STEP   1 STRESS PERIOD   2
     2 TOTAL ITERATIONS
     1 CALLS TO GCG PACKAGE FOR TRANSPORT TIME STEP1611 IN FLOW TIME STEP   1 STRESS PERIOD   2
     2 TOTAL ITERATIONS
     1 CALLS TO GCG PACKAGE FOR TRANSPORT TIME STEP1612 IN FLOW TIME STEP   1 STRESS PERIOD   2
     2 TOTAL ITERATIONS
     1 CALLS TO GCG PACKAGE FOR TRANSPORT TIME STEP1613 IN FLOW TIME STEP   1 STRESS PERIOD   2
     2 TOTAL ITERATIONS
     1 CALLS TO GCG PACKAGE FOR TRANSPORT TIME STEP1614 IN FLOW TIME STEP   1 STRESS PERIOD   2
     2 TOTAL ITERATIONS
     1 CALLS TO GCG PACKAGE FOR TRANSPORT TIME STEP1615 IN FLOW TIME STEP   1 STRESS PERIOD   2
     2 TOTAL ITERATIONS
     1 CALLS TO GCG PACKAGE FOR TRANSPORT TIME STEP1616 IN FLOW TIME STEP   1 STRESS PERIOD   2
     2 TOTAL ITERATIONS
     1 CALLS TO GCG PACKAGE FOR TRANSPORT TIME STEP1617 IN FLOW TIME STEP   1 STRESS PERIOD   2
     2 TOTAL ITERATIONS
     1 CALLS TO GCG PACKAGE FOR TRANSPORT TIME STEP1618 IN FLOW TIME STEP   1 STRESS PERIOD   2
     2 TOTAL ITERATIONS
     1 CALLS TO GCG PACKAGE FOR TRANSPORT TIME STEP1619 IN FLOW TIME STEP   1 STRESS PERIOD   2
     2 TOTAL ITERATIONS
     1 CALLS TO GCG PACKAGE FOR TRANSPORT TIME STEP1620 IN FLOW TIME STEP   1 STRESS PERIOD   2
     2 TOTAL ITERATIONS
     1 CALLS TO GCG PACKAGE FOR TRANSPORT TIME STEP1621 IN FLOW TIME STEP   1 STRESS PERIOD   2
     2 TOTAL ITERATIONS
     1 CALLS TO GCG PACKAGE FOR TRANSPORT TIME STEP1622 IN FLOW TIME STEP   1 STRESS PERIOD   2
     2 TOTAL ITERATIONS
     1 CALLS TO GCG PACKAGE FOR TRANSPORT TIME STEP1623 IN FLOW TIME STEP   1 STRESS PERIOD   2
     2 TOTAL ITERATIONS
     1 CALLS TO GCG PACKAGE FOR TRANSPORT TIME STEP1624 IN FLOW TIME STEP   1 STRESS PERIOD   2
     2 TOTAL ITERATIONS
     1 CALLS TO GCG PACKAGE FOR TRANSPORT TIME STEP1625 IN FLOW TIME STEP   1 STRESS PERIOD   2
     2 TOTAL ITERATIONS
     1 CALLS TO GCG PACKAGE FOR TRANSPORT TIME STEP1626 IN FLOW TIME STEP   1 STRESS PERIOD   2
     2 TOTAL ITERATIONS
     1 CALLS TO GCG PACKAGE FOR TRANSPORT TIME STEP1627 IN FLOW TIME STEP   1 STRESS PERIOD   2
     2 TOTAL ITERATIONS
     1 CALLS TO GCG PACKAGE FOR TRANSPORT TIME STEP1628 IN FLOW TIME STEP   1 STRESS PERIOD   2
     2 TOTAL ITERATIONS
     1 CALLS TO GCG PACKAGE FOR TRANSPORT TIME STEP1629 IN FLOW TIME STEP   1 STRESS PERIOD   2
     2 TOTAL ITERATIONS
     1 CALLS TO GCG PACKAGE FOR TRANSPORT TIME STEP1630 IN FLOW TIME STEP   1 STRESS PERIOD   2
     2 TOTAL ITERATIONS
     1 CALLS TO GCG PACKAGE FOR TRANSPORT TIME STEP1631 IN FLOW TIME STEP   1 STRESS PERIOD   2
     2 TOTAL ITERATIONS
     1 CALLS TO GCG PACKAGE FOR TRANSPORT TIME STEP1632 IN FLOW TIME STEP   1 STRESS PERIOD   2
     2 TOTAL ITERATIONS
     1 CALLS TO GCG PACKAGE FOR TRANSPORT TIME STEP1633 IN FLOW TIME STEP   1 STRESS PERIOD   2
     2 TOTAL ITERATIONS
     1 CALLS TO GCG PACKAGE FOR TRANSPORT TIME STEP1634 IN FLOW TIME STEP   1 STRESS PERIOD   2
     2 TOTAL ITERATIONS
     1 CALLS TO GCG PACKAGE FOR TRANSPORT TIME STEP1635 IN FLOW TIME STEP   1 STRESS PERIOD   2
     2 TOTAL ITERATIONS
     1 CALLS TO GCG PACKAGE FOR TRANSPORT TIME STEP1636 IN FLOW TIME STEP   1 STRESS PERIOD   2
     2 TOTAL ITERATIONS
     1 CALLS TO GCG PACKAGE FOR TRANSPORT TIME STEP1637 IN FLOW TIME STEP   1 STRESS PERIOD   2
     2 TOTAL ITERATIONS
     1 CALLS TO GCG PACKAGE FOR TRANSPORT TIME STEP1638 IN FLOW TIME STEP   1 STRESS PERIOD   2
     2 TOTAL ITERATIONS
     1 CALLS TO GCG PACKAGE FOR TRANSPORT TIME STEP1639 IN FLOW TIME STEP   1 STRESS PERIOD   2
     2 TOTAL ITERATIONS
     1 CALLS TO GCG PACKAGE FOR TRANSPORT TIME STEP1640 IN FLOW TIME STEP   1 STRESS PERIOD   2
     2 TOTAL ITERATIONS
     1 CALLS TO GCG PACKAGE FOR TRANSPORT TIME STEP1641 IN FLOW TIME STEP   1 STRESS PERIOD   2
     2 TOTAL ITERATIONS
     1 CALLS TO GCG PACKAGE FOR TRANSPORT TIME STEP1642 IN FLOW TIME STEP   1 STRESS PERIOD   2
     2 TOTAL ITERATIONS
     1 CALLS TO GCG PACKAGE FOR TRANSPORT TIME STEP1643 IN FLOW TIME STEP   1 STRESS PERIOD   2
     2 TOTAL ITERATIONS
     1 CALLS TO GCG PACKAGE FOR TRANSPORT TIME STEP1644 IN FLOW TIME STEP   1 STRESS PERIOD   2
     2 TOTAL ITERATIONS
     1 CALLS TO GCG PACKAGE FOR TRANSPORT TIME STEP1645 IN FLOW TIME STEP   1 STRESS PERIOD   2
     2 TOTAL ITERATIONS
     1 CALLS TO GCG PACKAGE FOR TRANSPORT TIME STEP1646 IN FLOW TIME STEP   1 STRESS PERIOD   2
     2 TOTAL ITERATIONS
     1 CALLS TO GCG PACKAGE FOR TRANSPORT TIME STEP1647 IN FLOW TIME STEP   1 STRESS PERIOD   2
     2 TOTAL ITERATIONS
     1 CALLS TO GCG PACKAGE FOR TRANSPORT TIME STEP1648 IN FLOW TIME STEP   1 STRESS PERIOD   2
     2 TOTAL ITERATIONS
     1 CALLS TO GCG PACKAGE FOR TRANSPORT TIME STEP1649 IN FLOW TIME STEP   1 STRESS PERIOD   2
     2 TOTAL ITERATIONS
     1 CALLS TO GCG PACKAGE FOR TRANSPORT TIME STEP1650 IN FLOW TIME STEP   1 STRESS PERIOD   2
     2 TOTAL ITERATIONS
  MAXIMUM CONCENTRATION CHANGES FOR EACH ITERATION:
  MAX. CHANGE LAYER,ROW,COL MAX. CHANGE LAYER,ROW,COL MAX. CHANGE LAYER,ROW,COL MAX. CHANGE LAYER,ROW,COL MAX. CHANGE LAYER,ROW,COL
 ------------------------------------------------------------------------------------------------------------------------------------
   0.7179E-01 (  1,  1,101)   0.000     (  1,  1,  1)



 >>>>>>>>>>>>>>>>>>>>>>>>>>>>>>>>>>>>>>>>>>>>>>>>>>>>>>>FOR COMPONENT NO. 01<<<<<<<<<<<<<<<<<<<<<<<<<<<<<<<<<<<<<<<<<<<<<<<<<<<<<<<


                                            -------------------------------------------
                                                      TRANSPORT STEP NO. 1650
                                            -------------------------------------------

 TOTAL ELAPSED TIME SINCE BEGINNING OF SIMULATION =   1480.000    D   
 .....................................................................

                     CUMMULATIVE MASS BUDGETS AT END OF TRANSPORT STEP 1650, TIME STEP    1, STRESS PERIOD    2
                     ------------------------------------------------------------------------------------------

                                                             IN                           OUT
                                                      ----------------             ----------------
                               CONSTANT CONCENTRATION:    0.000000                    0.000000    
                                        CONSTANT HEAD:   0.2959996                  -0.2311055    
                               1ST/0TH ORDER REACTION:    0.000000                    0.000000    
                                MASS STORAGE (SOLUTE):   0.1210396                  -0.1265137    
                                MASS STORAGE (SORBED):   0.4528890                  -0.4995015    
                            ---------------------------------------------------------------------------
                                              [TOTAL]:   0.8699282     KG           -0.8571206     KG  

                                                          NET (IN - OUT):   0.1280755E-01
                                                   DISCREPANCY (PERCENT):    1.483171    
  ----- 
 | M T |
 | 3 D | END OF MODEL OUTPUT
  ----- 
